
     RDKit          3D

 43 45  0  0  0  0  0  0  0  0999 V2000
    1.4708   -2.5893    1.8098 H   0  0  0  0  0  0  0  0  0  0  0  0
   -2.2091    3.2289    1.2524 C   0  0  0  0  0  0  0  0  0  0  0  0
   -2.1427    0.4620   -0.4400 C   0  0  0  0  0  0  0  0  0  0  0  0
    2.2090   -5.1605   -2.8577 H   0  0  0  0  0  0  0  0  0  0  0  0
   -2.4906    3.9835    0.1475 C   0  0  0  0  0  0  0  0  0  0  0  0
    1.5951    1.8897    0.7623 H   0  0  0  0  0  0  0  0  0  0  0  0
   -0.3479   -0.0307   -1.6142 H   0  0  0  0  0  0  0  0  0  0  0  0
    0.1680   -3.5475    1.0638 H   0  0  0  0  0  0  0  0  0  0  0  0
    0.4641   -0.4111    1.4189 C   0  0  0  0  0  0  0  0  0  0  0  0
    0.1306   -1.4641    0.6642 N   0  0  0  0  0  0  0  0  0  0  0  0
    2.8567   -2.1728   -0.5031 C   0  0  0  0  0  0  0  0  0  0  0  0
   -1.8074   -0.8315   -2.0574 H   0  0  0  0  0  0  0  0  0  0  0  0
   -1.4015    5.5543    1.3889 C   0  0  0  0  0  0  0  0  0  0  0  0
    0.8832   -2.7374    0.8825 C   0  0  0  0  0  0  0  0  0  0  0  0
   -1.2382   -0.5300   -1.1921 C   0  0  0  0  0  0  0  0  0  0  0  0
    0.2381    2.6808   -0.0170 H   0  0  0  0  0  0  0  0  0  0  0  0
    1.3659   -0.4766    2.2164 O   0  0  0  0  0  0  0  0  0  0  0  0
   -3.0581    3.5998   -0.6597 H   0  0  0  0  0  0  0  0  0  0  0  0
   -1.8005   -1.9946    0.2927 H   0  0  0  0  0  0  0  0  0  0  0  0
   -2.0509    5.2899    0.2498 C   0  0  0  0  0  0  0  0  0  0  0  0
   -2.1534    6.0221   -0.4992 H   0  0  0  0  0  0  0  0  0  0  0  0
   -1.3028    4.1388    2.4028 S   0  0  0  0  0  0  0  0  0  0  0  0
   -0.3090    1.2945    2.1345 H   0  0  0  0  0  0  0  0  0  0  0  0
   -0.9202    6.4225    1.6965 H   0  0  0  0  0  0  0  0  0  0  0  0
   -0.8609   -1.6852   -0.2337 C   0  0  0  0  0  0  0  0  0  0  0  0
    4.4953   -1.7618   -1.7286 H   0  0  0  0  0  0  0  0  0  0  0  0
   -0.2889    0.8401    1.1989 C   0  0  0  0  0  0  0  0  0  0  0  0
    3.6688   -2.4112   -1.5734 C   0  0  0  0  0  0  0  0  0  0  0  0
   -2.4977    1.7953    1.5029 C   0  0  0  0  0  0  0  0  0  0  0  0
    1.7879   -3.0157   -0.2516 C   0  0  0  0  0  0  0  0  0  0  0  0
    2.4021   -4.3059   -2.1869 C   0  0  0  0  0  0  0  0  0  0  0  0
    4.0880   -3.6343   -3.2716 H   0  0  0  0  0  0  0  0  0  0  0  0
   -2.4293    1.5883    2.5428 H   0  0  0  0  0  0  0  0  0  0  0  0
   -3.5195    1.6166    1.1767 H   0  0  0  0  0  0  0  0  0  0  0  0
    3.0445   -1.3809    0.1906 H   0  0  0  0  0  0  0  0  0  0  0  0
    1.5587   -4.0866   -1.1188 C   0  0  0  0  0  0  0  0  0  0  0  0
    0.6830    1.7335    0.2040 C   0  0  0  0  0  0  0  0  0  0  0  0
   -0.5924   -2.4592   -0.8618 H   0  0  0  0  0  0  0  0  0  0  0  0
   -3.2353    0.7369   -0.8382 O   0  0  0  0  0  0  0  0  0  0  0  0
    3.4393   -3.4666   -2.4190 C   0  0  0  0  0  0  0  0  0  0  0  0
    0.7492   -4.7800   -0.9302 H   0  0  0  0  0  0  0  0  0  0  0  0
   -1.5905    0.8392    0.7529 N   0  0  0  0  0  0  0  0  0  0  0  0
    0.9484    1.2166   -0.6973 H   0  0  0  0  0  0  0  0  0  0  0  0
  5  2  2  0
 10  9  1  0
 14  1  1  0
 14  8  1  0
 14 10  1  0
 15  3  1  0
 15  7  1  0
 15 12  1  0
 17  9  2  0
 18  5  1  0
 20  5  1  0
 20 13  2  0
 21 20  1  0
 22  2  1  0
 22 13  1  0
 24 13  1  0
 25 10  1  0
 25 15  1  0
 25 19  1  0
 27  9  1  0
 27 23  1  0
 28 11  2  0
 28 26  1  0
 29  2  1  0
 30 11  1  0
 30 14  1  0
 31  4  1  0
 33 29  1  0
 34 29  1  0
 35 11  1  0
 36 30  2  0
 36 31  1  0
 37  6  1  0
 37 16  1  0
 37 27  1  0
 38 25  1  0
 39  3  2  0
 40 28  1  0
 40 31  2  0
 40 32  1  0
 41 36  1  0
 42  3  1  0
 42 27  1  0
 42 29  1  0
 43 37  1  0
M  END
$$$$
