
     RDKit          3D

 42 44  0  0  0  0  0  0  0  0999 V2000
    2.7085    2.2548   -0.8933 H   0  0  0  0  0  0  0  0  0  0  0  0
   -2.3647    3.4765    2.1660 H   0  0  0  0  0  0  0  0  0  0  0  0
    2.0231   -2.3904    2.2508 H   0  0  0  0  0  0  0  0  0  0  0  0
   -5.0168    0.6496    1.6031 F   0  0  0  0  0  0  0  0  0  0  0  0
   -0.5960    2.0827   -0.3606 C   0  0  0  0  0  0  0  0  0  0  0  0
   -1.0873   -0.9570   -1.9972 O   0  0  0  0  0  0  0  0  0  0  0  0
    0.9298   -2.9249    0.5316 C   0  0  0  0  0  0  0  0  0  0  0  0
   -1.3871    0.8689   -0.4557 C   0  0  0  0  0  0  0  0  0  0  0  0
    1.4521   -1.8956   -0.3646 N   0  0  0  0  0  0  0  0  0  0  0  0
    2.7920   -1.0092   -2.2671 H   0  0  0  0  0  0  0  0  0  0  0  0
    1.5300   -4.0950    2.2135 H   0  0  0  0  0  0  0  0  0  0  0  0
    0.8416   -0.5151   -3.3866 H   0  0  0  0  0  0  0  0  0  0  0  0
    1.5991   -0.2734    1.2857 O   0  0  0  0  0  0  0  0  0  0  0  0
    0.2111    0.9125   -2.1082 N   0  0  0  0  0  0  0  0  0  0  0  0
   -0.7819    0.1385   -1.5637 C   0  0  0  0  0  0  0  0  0  0  0  0
   -3.0734   -0.2104    0.2090 H   0  0  0  0  0  0  0  0  0  0  0  0
    1.8999   -3.2375    1.6213 C   0  0  0  0  0  0  0  0  0  0  0  0
   -0.4824   -2.5587    0.9831 C   0  0  0  0  0  0  0  0  0  0  0  0
   -2.0676    2.7416    1.4133 C   0  0  0  0  0  0  0  0  0  0  0  0
    1.8715    1.7073   -0.5502 C   0  0  0  0  0  0  0  0  0  0  0  0
    1.4626    1.0554   -3.7171 H   0  0  0  0  0  0  0  0  0  0  0  0
    0.6089    2.0913   -1.2879 C   0  0  0  0  0  0  0  0  0  0  0  0
   -3.7428    0.6963    3.2494 F   0  0  0  0  0  0  0  0  0  0  0  0
   -0.9344   -3.4062    1.5338 H   0  0  0  0  0  0  0  0  0  0  0  0
    1.2111   -1.9937   -1.2743 H   0  0  0  0  0  0  0  0  0  0  0  0
    1.2520    0.3423   -2.9239 C   0  0  0  0  0  0  0  0  0  0  0  0
   -1.0707   -2.3246    0.0722 H   0  0  0  0  0  0  0  0  0  0  0  0
   -0.9942    2.9577    0.6288 C   0  0  0  0  0  0  0  0  0  0  0  0
   -0.4213    3.8488    0.7451 H   0  0  0  0  0  0  0  0  0  0  0  0
    2.2588    0.2602   -0.7585 N   0  0  0  0  0  0  0  0  0  0  0  0
   -0.4425   -1.6510    1.6116 H   0  0  0  0  0  0  0  0  0  0  0  0
    0.8654   -3.8736   -0.0480 H   0  0  0  0  0  0  0  0  0  0  0  0
   -4.6030    2.4429    2.6555 F   0  0  0  0  0  0  0  0  0  0  0  0
    3.2885    0.5919   -2.4406 H   0  0  0  0  0  0  0  0  0  0  0  0
   -2.8311    1.5932    1.2696 C   0  0  0  0  0  0  0  0  0  0  0  0
    2.9047   -3.5084    1.2175 H   0  0  0  0  0  0  0  0  0  0  0  0
    1.7588   -0.6237    0.1155 C   0  0  0  0  0  0  0  0  0  0  0  0
   -2.4852    0.6623    0.3184 C   0  0  0  0  0  0  0  0  0  0  0  0
   -4.0114    1.3604    2.1765 C   0  0  0  0  0  0  0  0  0  0  0  0
    0.7062    2.9239   -1.8216 H   0  0  0  0  0  0  0  0  0  0  0  0
    2.4592    0.0098   -2.1479 C   0  0  0  0  0  0  0  0  0  0  0  0
    1.7588    1.7797    0.4955 H   0  0  0  0  0  0  0  0  0  0  0  0
  8  5  2  0
  9  7  1  0
 15  6  2  0
 15  8  1  0
 15 14  1  0
 17  3  1  0
 17  7  1  0
 17 11  1  0
 18  7  1  0
 19  2  1  0
 20  1  1  0
 22  5  1  0
 22 14  1  0
 22 20  1  0
 24 18  1  0
 25  9  1  0
 26 12  1  0
 26 14  1  0
 26 21  1  0
 27 18  1  0
 28  5  1  0
 28 19  2  0
 29 28  1  0
 30 20  1  0
 31 18  1  0
 32  7  1  0
 35 19  1  0
 36 17  1  0
 37  9  1  0
 37 13  2  0
 37 30  1  0
 38  8  1  0
 38 16  1  0
 38 35  2  0
 39  4  1  0
 39 23  1  0
 39 33  1  0
 39 35  1  0
 40 22  1  0
 41 10  1  0
 41 26  1  0
 41 30  1  0
 41 34  1  0
 42 20  1  0
M  END
$$$$
