
     RDKit          3D

 41 43  0  0  0  0  0  0  0  0999 V2000
   -1.1417   -0.6729    0.3500 H   0  0  0  0  0  0  0  0  0  0  0  0
    0.7937    3.6361   -1.1048 O   0  0  0  0  0  0  0  0  0  0  0  0
    0.6908   -0.7387    3.8000 H   0  0  0  0  0  0  0  0  0  0  0  0
    3.6583   -1.4874    0.3266 C   0  0  0  0  0  0  0  0  0  0  0  0
   -2.8482    0.1661   -2.8563 C   0  0  0  0  0  0  0  0  0  0  0  0
    0.7786   -0.6687    2.6997 C   0  0  0  0  0  0  0  0  0  0  0  0
   -0.6540    0.8751    2.4992 H   0  0  0  0  0  0  0  0  0  0  0  0
   -3.3555   -0.5067    0.3548 H   0  0  0  0  0  0  0  0  0  0  0  0
    3.8192    1.1542    0.0221 H   0  0  0  0  0  0  0  0  0  0  0  0
   -0.8688    0.2238    0.1394 N   0  0  0  0  0  0  0  0  0  0  0  0
   -1.4105    0.7942   -0.9659 C   0  0  0  0  0  0  0  0  0  0  0  0
   -4.0148   -0.4194   -3.3992 C   0  0  0  0  0  0  0  0  0  0  0  0
   -2.1718    0.6534   -3.5098 H   0  0  0  0  0  0  0  0  0  0  0  0
    4.5393   -1.5965    0.9889 H   0  0  0  0  0  0  0  0  0  0  0  0
    3.1965   -2.4664    0.2268 H   0  0  0  0  0  0  0  0  0  0  0  0
    0.3591    0.6699    2.2126 C   0  0  0  0  0  0  0  0  0  0  0  0
   -1.3266    2.5134   -2.2809 H   0  0  0  0  0  0  0  0  0  0  0  0
    2.2686   -0.9550    2.3629 C   0  0  0  0  0  0  0  0  0  0  0  0
    0.1254   -1.4762    2.2945 H   0  0  0  0  0  0  0  0  0  0  0  0
    1.4813   -0.2960    0.0531 C   0  0  0  0  0  0  0  0  0  0  0  0
    1.0776   -1.3189   -0.0655 H   0  0  0  0  0  0  0  0  0  0  0  0
   -5.7850   -1.4959   -2.9916 H   0  0  0  0  0  0  0  0  0  0  0  0
   -5.3035   -1.6159   -0.5701 H   0  0  0  0  0  0  0  0  0  0  0  0
    0.2541    2.6089   -0.8251 C   0  0  0  0  0  0  0  0  0  0  0  0
    2.3831   -2.0092    2.4155 H   0  0  0  0  0  0  0  0  0  0  0  0
    2.9227    1.6721    1.3589 H   0  0  0  0  0  0  0  0  0  0  0  0
    0.9721    1.4328    2.5901 H   0  0  0  0  0  0  0  0  0  0  0  0
   -3.5090   -0.4991   -0.7109 C   0  0  0  0  0  0  0  0  0  0  0  0
    4.0085   -1.2117   -0.6498 H   0  0  0  0  0  0  0  0  0  0  0  0
   -0.9097    1.9639   -1.4940 C   0  0  0  0  0  0  0  0  0  0  0  0
    0.4742    0.6831    0.6087 C   0  0  0  0  0  0  0  0  0  0  0  0
    0.7026    1.9473    0.2976 O   0  0  0  0  0  0  0  0  0  0  0  0
    3.4952    0.9035    0.9824 C   0  0  0  0  0  0  0  0  0  0  0  0
    2.6826   -0.4427    0.9085 C   0  0  0  0  0  0  0  0  0  0  0  0
   -4.1800   -0.3378   -4.4575 H   0  0  0  0  0  0  0  0  0  0  0  0
    2.8657   -0.4774    3.0791 H   0  0  0  0  0  0  0  0  0  0  0  0
    1.7758    0.0530   -0.8910 H   0  0  0  0  0  0  0  0  0  0  0  0
   -4.6553   -1.1112   -1.2483 C   0  0  0  0  0  0  0  0  0  0  0  0
   -4.9288   -1.0455   -2.5893 C   0  0  0  0  0  0  0  0  0  0  0  0
    4.3495    0.7520    1.5797 H   0  0  0  0  0  0  0  0  0  0  0  0
   -2.6114    0.1463   -1.5409 C   0  0  0  0  0  0  0  0  0  0  0  0
  6  3  1  0
 10  1  1  0
 11 10  1  0
 12  5  2  0
 13  5  1  0
 14  4  1  0
 15  4  1  0
 16  6  1  0
 16  7  1  0
 18  6  1  0
 19  6  1  0
 21 20  1  0
 24  2  2  0
 25 18  1  0
 27 16  1  0
 28  8  1  0
 29  4  1  0
 30 11  2  0
 30 17  1  0
 30 24  1  0
 31 10  1  0
 31 16  1  0
 31 20  1  0
 32 24  1  0
 32 31  1  0
 33  9  1  0
 33 26  1  0
 34  4  1  0
 34 18  1  0
 34 20  1  0
 34 33  1  0
 35 12  1  0
 36 18  1  0
 37 20  1  0
 38 23  1  0
 38 28  1  0
 39 12  1  0
 39 22  1  0
 39 38  2  0
 40 33  1  0
 41  5  1  0
 41 11  1  0
 41 28  2  0
M  END
$$$$
