
     RDKit          3D

 43 43  0  0  0  0  0  0  0  0999 V2000
   -2.1564   -2.4445   -1.6621 H   0  0  0  0  0  0  0  0  0  0  0  0
   -2.6348   -0.5074    0.3313 C   0  0  0  0  0  0  0  0  0  0  0  0
    0.2536   -3.3691   -0.9764 N   0  0  0  0  0  0  0  0  0  0  0  0
   -1.6378   -1.0391    1.3175 N   0  0  0  0  0  0  0  0  0  0  0  0
    2.4852   -0.6333    0.4519 O   0  0  0  0  0  0  0  0  0  0  0  0
    1.9084    2.7577   -3.3023 H   0  0  0  0  0  0  0  0  0  0  0  0
   -0.9384   -0.1717    2.0592 N   0  0  0  0  0  0  0  0  0  0  0  0
    1.5839    0.2751   -1.6833 H   0  0  0  0  0  0  0  0  0  0  0  0
   -0.3553   -2.6415    1.5511 H   0  0  0  0  0  0  0  0  0  0  0  0
   -1.1501    1.3095   -2.4832 O   0  0  0  0  0  0  0  0  0  0  0  0
   -1.2397    0.7733   -1.3868 C   0  0  0  0  0  0  0  0  0  0  0  0
   -1.0567   -2.2691    0.8338 C   0  0  0  0  0  0  0  0  0  0  0  0
   -3.0711   -0.2074   -1.7057 H   0  0  0  0  0  0  0  0  0  0  0  0
    2.1515    1.0297   -1.1831 C   0  0  0  0  0  0  0  0  0  0  0  0
    2.3530   -0.9205    1.3531 H   0  0  0  0  0  0  0  0  0  0  0  0
   -2.9258    0.4290    0.7328 H   0  0  0  0  0  0  0  0  0  0  0  0
    0.1719    2.4518   -0.5696 C   0  0  0  0  0  0  0  0  0  0  0  0
   -3.4182   -1.2272    0.3628 H   0  0  0  0  0  0  0  0  0  0  0  0
   -2.1066   -0.3866   -1.0587 C   0  0  0  0  0  0  0  0  0  0  0  0
   -0.3921   -2.0652   -0.5089 C   0  0  0  0  0  0  0  0  0  0  0  0
   -0.5070    3.1934   -1.0192 H   0  0  0  0  0  0  0  0  0  0  0  0
    2.2927    0.6775    0.2467 C   0  0  0  0  0  0  0  0  0  0  0  0
    0.4216    2.1852   -3.0372 H   0  0  0  0  0  0  0  0  0  0  0  0
    2.1072    3.1329   -1.0119 H   0  0  0  0  0  0  0  0  0  0  0  0
    3.1058    1.0557   -1.6475 H   0  0  0  0  0  0  0  0  0  0  0  0
   -0.6076    1.2561   -0.4047 O   0  0  0  0  0  0  0  0  0  0  0  0
    0.9463   -1.2921    2.5193 O   0  0  0  0  0  0  0  0  0  0  0  0
   -0.2645    1.1721    4.1368 H   0  0  0  0  0  0  0  0  0  0  0  0
   -0.9330   -1.5266   -2.5102 H   0  0  0  0  0  0  0  0  0  0  0  0
    1.4618    2.3693   -1.3505 C   0  0  0  0  0  0  0  0  0  0  0  0
    0.3740   -1.2804   -0.3931 H   0  0  0  0  0  0  0  0  0  0  0  0
    1.1288    1.4865    3.1700 H   0  0  0  0  0  0  0  0  0  0  0  0
    0.2672   -0.4450    2.7297 C   0  0  0  0  0  0  0  0  0  0  0  0
   -1.3535    0.6657    2.1261 H   0  0  0  0  0  0  0  0  0  0  0  0
    1.2743    0.3457    4.4807 H   0  0  0  0  0  0  0  0  0  0  0  0
    0.8010   -3.6874   -0.3867 H   0  0  0  0  0  0  0  0  0  0  0  0
    1.1958    2.6752   -2.8110 N   0  0  0  0  0  0  0  0  0  0  0  0
    2.3520    1.4282    1.1595 O   0  0  0  0  0  0  0  0  0  0  0  0
    0.4002   -3.4031   -1.7917 H   0  0  0  0  0  0  0  0  0  0  0  0
    0.3550    2.7135    0.4490 H   0  0  0  0  0  0  0  0  0  0  0  0
    0.6162    0.7195    3.6683 C   0  0  0  0  0  0  0  0  0  0  0  0
   -1.3977   -1.5972   -1.5444 C   0  0  0  0  0  0  0  0  0  0  0  0
   -1.8611   -2.9882    0.7486 H   0  0  0  0  0  0  0  0  0  0  0  0
  4  2  1  0
  7  4  1  0
 11 10  2  0
 12  4  1  0
 12  9  1  0
 14  8  1  0
 15  5  1  0
 16  2  1  0
 18  2  1  0
 19  2  1  0
 19 11  1  0
 19 13  1  0
 20  3  1  0
 20 12  1  0
 21 17  1  0
 22  5  1  0
 22 14  1  0
 25 14  1  0
 26 11  1  0
 26 17  1  0
 30 14  1  0
 30 17  1  0
 30 24  1  0
 31 20  1  0
 33  7  1  0
 33 27  2  0
 34  7  1  0
 36  3  1  0
 37  6  1  0
 37 23  1  0
 37 30  1  0
 38 22  2  0
 39  3  1  0
 40 17  1  0
 41 28  1  0
 41 32  1  0
 41 33  1  0
 41 35  1  0
 42  1  1  0
 42 19  1  0
 42 20  1  0
 42 29  1  0
 43 12  1  0
M  END
$$$$
