
     RDKit          3D

 42 42  0  0  0  0  0  0  0  0999 V2000
    0.0665    1.3971   -2.3693 H   0  0  0  0  0  0  0  0  0  0  0  0
    1.2326    4.4165   -0.5888 H   0  0  0  0  0  0  0  0  0  0  0  0
    0.7149    2.1379   -1.9555 C   0  0  0  0  0  0  0  0  0  0  0  0
    1.1042    3.5257    0.0028 C   0  0  0  0  0  0  0  0  0  0  0  0
    2.0707    3.0959    0.1496 H   0  0  0  0  0  0  0  0  0  0  0  0
    3.2128    0.2580    3.4010 H   0  0  0  0  0  0  0  0  0  0  0  0
    0.8540   -3.0012    1.2782 C   0  0  0  0  0  0  0  0  0  0  0  0
    1.7699   -1.5934    3.6359 H   0  0  0  0  0  0  0  0  0  0  0  0
    0.8249    2.9890   -2.6188 H   0  0  0  0  0  0  0  0  0  0  0  0
   -1.7872   -3.5767   -1.2744 H   0  0  0  0  0  0  0  0  0  0  0  0
    3.2124    0.1380    1.6873 H   0  0  0  0  0  0  0  0  0  0  0  0
   -3.4256   -2.6904   -2.8304 C   0  0  0  0  0  0  0  0  0  0  0  0
    0.7742    0.7638    3.3219 H   0  0  0  0  0  0  0  0  0  0  0  0
    1.4352    0.8790    2.4653 C   0  0  0  0  0  0  0  0  0  0  0  0
   -0.0552   -3.2271    0.4002 C   0  0  0  0  0  0  0  0  0  0  0  0
    1.3913   -3.7585    1.7339 H   0  0  0  0  0  0  0  0  0  0  0  0
    0.6868    0.6343    1.3157 N   0  0  0  0  0  0  0  0  0  0  0  0
    1.6637    1.6645   -1.8089 H   0  0  0  0  0  0  0  0  0  0  0  0
   -0.2708   -4.1541    0.1252 H   0  0  0  0  0  0  0  0  0  0  0  0
   -1.0619    4.0476   -1.4408 H   0  0  0  0  0  0  0  0  0  0  0  0
   -0.7980   -2.2269   -0.2426 C   0  0  0  0  0  0  0  0  0  0  0  0
   -1.1800    0.1593   -0.4252 O   0  0  0  0  0  0  0  0  0  0  0  0
    1.1391   -1.6846    1.6398 C   0  0  0  0  0  0  0  0  0  0  0  0
    1.7438    1.9252    2.4336 H   0  0  0  0  0  0  0  0  0  0  0  0
   -1.7559   -2.5737   -1.1797 N   0  0  0  0  0  0  0  0  0  0  0  0
    2.1965   -1.4395    2.6778 C   0  0  0  0  0  0  0  0  0  0  0  0
   -1.5383    3.4307    0.1447 H   0  0  0  0  0  0  0  0  0  0  0  0
    2.6279    0.0427    2.5585 C   0  0  0  0  0  0  0  0  0  0  0  0
   -1.7736   -0.0449   -1.0624 H   0  0  0  0  0  0  0  0  0  0  0  0
   -1.7692    2.4737   -1.2228 H   0  0  0  0  0  0  0  0  0  0  0  0
   -4.0506   -2.1463   -3.4833 H   0  0  0  0  0  0  0  0  0  0  0  0
   -2.6543   -0.7134   -2.0460 O   0  0  0  0  0  0  0  0  0  0  0  0
   -2.8125   -3.3511   -3.4859 H   0  0  0  0  0  0  0  0  0  0  0  0
    3.0015   -2.0928    2.5611 H   0  0  0  0  0  0  0  0  0  0  0  0
   -4.0267   -3.3820   -2.2508 H   0  0  0  0  0  0  0  0  0  0  0  0
    0.1232    1.7226    0.0374 H   0  0  0  0  0  0  0  0  0  0  0  0
   -2.5854   -1.9219   -1.9959 C   0  0  0  0  0  0  0  0  0  0  0  0
    0.1982    2.4886   -0.5886 N   0  0  0  0  0  0  0  0  0  0  0  0
   -1.1403    3.1581   -0.8272 C   0  0  0  0  0  0  0  0  0  0  0  0
    0.7129    3.8084    0.9807 H   0  0  0  0  0  0  0  0  0  0  0  0
   -0.5167   -0.8882    0.1159 C   0  0  0  0  0  0  0  0  0  0  0  0
    0.4453   -0.6897    1.0309 C   0  0  0  0  0  0  0  0  0  0  0  0
  3  1  1  0
  4  2  1  0
  5  4  1  0
  9  3  1  0
 14 13  1  0
 15  7  2  0
 16  7  1  0
 17 14  1  0
 18  3  1  0
 19 15  1  0
 21 15  1  0
 23  7  1  0
 24 14  1  0
 25 10  1  0
 25 21  1  0
 26  8  1  0
 26 23  1  0
 28  6  1  0
 28 11  1  0
 28 14  1  0
 28 26  1  0
 29 22  1  0
 31 12  1  0
 33 12  1  0
 34 26  1  0
 35 12  1  0
 37 12  1  0
 37 25  1  0
 37 32  2  0
 38  3  1  0
 38  4  1  0
 38 36  1  0
 39 20  1  0
 39 27  1  0
 39 30  1  0
 39 38  1  0
 40  4  1  0
 41 21  2  0
 41 22  1  0
 42 17  1  0
 42 23  2  0
 42 41  1  0
M  CHG  1  38   1
M  END
$$$$
