
     RDKit          3D

 44 45  0  0  0  0  0  0  0  0999 V2000
   -2.1014    0.7874   -0.2502 N   0  0  0  0  0  0  0  0  0  0  0  0
   -2.7972    1.1424   -2.0966 H   0  0  0  0  0  0  0  0  0  0  0  0
   -0.2173   -2.7657   -1.0618 C   0  0  0  0  0  0  0  0  0  0  0  0
    2.9321   -1.5209   -0.3252 H   0  0  0  0  0  0  0  0  0  0  0  0
    0.2660    1.7501    1.1149 N   0  0  0  0  0  0  0  0  0  0  0  0
    3.8163   -0.4054    1.6943 H   0  0  0  0  0  0  0  0  0  0  0  0
    3.4969   -0.5347   -0.4081 C   0  0  0  0  0  0  0  0  0  0  0  0
   -0.2215   -2.7503   -3.2257 H   0  0  0  0  0  0  0  0  0  0  0  0
   -2.1357    1.4247    2.6949 C   0  0  0  0  0  0  0  0  0  0  0  0
   -2.0244    2.5926    4.4620 H   0  0  0  0  0  0  0  0  0  0  0  0
   -1.4683    1.7873    4.0170 C   0  0  0  0  0  0  0  0  0  0  0  0
   -2.6411   -1.2137    0.6807 O   0  0  0  0  0  0  0  0  0  0  0  0
   -1.6967   -2.2628   -2.5563 H   0  0  0  0  0  0  0  0  0  0  0  0
   -2.7766   -0.5698   -1.6696 H   0  0  0  0  0  0  0  0  0  0  0  0
   -0.6633   -2.1852   -2.4090 C   0  0  0  0  0  0  0  0  0  0  0  0
   -0.9292    0.2840   -2.2825 C   0  0  0  0  0  0  0  0  0  0  0  0
    1.1150   -1.1766    2.2289 H   0  0  0  0  0  0  0  0  0  0  0  0
   -0.7285   -2.3214   -0.2622 H   0  0  0  0  0  0  0  0  0  0  0  0
    4.5231   -0.8079   -0.5954 H   0  0  0  0  0  0  0  0  0  0  0  0
   -0.0801    0.5983    1.6840 N   0  0  0  0  0  0  0  0  0  0  0  0
    3.3699    0.2330    0.8783 C   0  0  0  0  0  0  0  0  0  0  0  0
   -0.1068    1.3134   -2.5642 C   0  0  0  0  0  0  0  0  0  0  0  0
   -2.1449    2.2639    2.0363 H   0  0  0  0  0  0  0  0  0  0  0  0
   -0.4556    2.1083    3.8157 H   0  0  0  0  0  0  0  0  0  0  0  0
   -1.4957    1.6217   -0.0459 H   0  0  0  0  0  0  0  0  0  0  0  0
    0.9890   -0.5262   -3.1187 C   0  0  0  0  0  0  0  0  0  0  0  0
    3.1221    0.0226   -1.2558 H   0  0  0  0  0  0  0  0  0  0  0  0
   -0.4541   -3.8593   -1.0847 H   0  0  0  0  0  0  0  0  0  0  0  0
   -2.2341    0.3733   -1.6111 C   0  0  0  0  0  0  0  0  0  0  0  0
    1.8788    1.3650   -3.4906 H   0  0  0  0  0  0  0  0  0  0  0  0
   -0.2499   -0.8315   -2.5621 N   0  0  0  0  0  0  0  0  0  0  0  0
   -1.3892    0.3042    2.0302 C   0  0  0  0  0  0  0  0  0  0  0  0
    0.8203   -2.6758   -0.9425 H   0  0  0  0  0  0  0  0  0  0  0  0
    1.9784    0.5385    1.1153 C   0  0  0  0  0  0  0  0  0  0  0  0
    1.0117   -0.1506    1.7738 C   0  0  0  0  0  0  0  0  0  0  0  0
   -1.4969    0.9943    4.6699 H   0  0  0  0  0  0  0  0  0  0  0  0
    1.6458   -1.2747   -3.4904 H   0  0  0  0  0  0  0  0  0  0  0  0
   -3.1516    1.1473    2.8902 H   0  0  0  0  0  0  0  0  0  0  0  0
    3.9816    1.1096    0.8516 H   0  0  0  0  0  0  0  0  0  0  0  0
   -2.1316   -0.1658    0.7542 C   0  0  0  0  0  0  0  0  0  0  0  0
    1.4903    1.6162    0.7749 N   0  0  0  0  0  0  0  0  0  0  0  0
    1.0991    0.8209   -3.1180 C   0  0  0  0  0  0  0  0  0  0  0  0
   -1.3882   -0.5332    2.7442 H   0  0  0  0  0  0  0  0  0  0  0  0
   -0.3565    2.3328   -2.4850 H   0  0  0  0  0  0  0  0  0  0  0  0
  7  4  1  0
 11  9  1  0
 11 10  1  0
 15  3  1  0
 15  8  1  0
 15 13  1  0
 18  3  1  0
 19  7  1  0
 20  5  1  0
 21  6  1  0
 21  7  1  0
 22 16  2  0
 23  9  1  0
 24 11  1  0
 25  1  1  0
 27  7  1  0
 28  3  1  0
 29  1  1  0
 29  2  1  0
 29 14  1  0
 29 16  1  0
 31 15  1  0
 31 16  1  0
 31 26  1  0
 32  9  1  0
 32 20  1  0
 33  3  1  0
 34 21  1  0
 35 17  1  0
 35 20  1  0
 35 34  2  0
 36 11  1  0
 37 26  1  0
 38  9  1  0
 39 21  1  0
 40  1  1  0
 40 12  2  0
 40 32  1  0
 41  5  2  0
 41 34  1  0
 42 22  1  0
 42 26  2  0
 42 30  1  0
 43 32  1  0
 44 22  1  0
M  END
$$$$
