
     RDKit          3D

 41 43  0  0  0  0  0  0  0  0999 V2000
   -1.9133    1.4135    1.1702 O   0  0  0  0  0  0  0  0  0  0  0  0
   -4.4469   -1.4536   -0.1588 C   0  0  0  0  0  0  0  0  0  0  0  0
    1.5821    2.2949   -0.8290 O   0  0  0  0  0  0  0  0  0  0  0  0
   -0.4328   -3.7181   -1.5652 H   0  0  0  0  0  0  0  0  0  0  0  0
   -1.9817   -1.2184   -1.2204 C   0  0  0  0  0  0  0  0  0  0  0  0
    0.5739   -1.4397   -3.2775 H   0  0  0  0  0  0  0  0  0  0  0  0
    0.7823   -3.7622   -2.9093 H   0  0  0  0  0  0  0  0  0  0  0  0
    2.1658    3.0159   -0.3412 H   0  0  0  0  0  0  0  0  0  0  0  0
   -2.8335   -2.2232   -1.6760 C   0  0  0  0  0  0  0  0  0  0  0  0
    1.1103   -2.9498   -1.3881 H   0  0  0  0  0  0  0  0  0  0  0  0
    1.1017    3.5475    2.5136 H   0  0  0  0  0  0  0  0  0  0  0  0
    0.0915   -0.1168   -1.2868 C   0  0  0  0  0  0  0  0  0  0  0  0
    1.8587    2.7665    2.7346 C   0  0  0  0  0  0  0  0  0  0  0  0
   -0.2523   -1.9165   -2.7407 C   0  0  0  0  0  0  0  0  0  0  0  0
    1.4613    0.9419    1.1982 N   0  0  0  0  0  0  0  0  0  0  0  0
    1.1869    1.3973    2.5358 C   0  0  0  0  0  0  0  0  0  0  0  0
    2.8755    0.7542    1.0380 C   0  0  0  0  0  0  0  0  0  0  0  0
    1.5332    0.6413    3.2320 H   0  0  0  0  0  0  0  0  0  0  0  0
   -2.3827   -0.3700   -0.2273 C   0  0  0  0  0  0  0  0  0  0  0  0
   -4.0673   -2.3581   -1.1677 C   0  0  0  0  0  0  0  0  0  0  0  0
   -2.5301   -2.8877   -2.4052 H   0  0  0  0  0  0  0  0  0  0  0  0
   -3.9637    0.1667    1.0616 H   0  0  0  0  0  0  0  0  0  0  0  0
   -3.6307   -0.5075    0.2810 C   0  0  0  0  0  0  0  0  0  0  0  0
    3.6768    1.8547    1.6761 C   0  0  0  0  0  0  0  0  0  0  0  0
   -0.2471    0.7107   -0.3398 C   0  0  0  0  0  0  0  0  0  0  0  0
    0.3306   -3.1666   -2.1129 C   0  0  0  0  0  0  0  0  0  0  0  0
    2.2211    2.9230    3.7378 H   0  0  0  0  0  0  0  0  0  0  0  0
    0.1386    1.4897    2.5981 H   0  0  0  0  0  0  0  0  0  0  0  0
    4.5421    2.1104    1.0492 H   0  0  0  0  0  0  0  0  0  0  0  0
    3.0166    0.7279   -0.0488 H   0  0  0  0  0  0  0  0  0  0  0  0
    1.0242   -0.0685   -1.7467 H   0  0  0  0  0  0  0  0  0  0  0  0
    0.7364    1.7495    0.1741 C   0  0  0  0  0  0  0  0  0  0  0  0
    2.9249    3.0037    1.8238 O   0  0  0  0  0  0  0  0  0  0  0  0
   -0.7191   -1.0521   -1.7325 N   0  0  0  0  0  0  0  0  0  0  0  0
   -5.6838   -1.5989    0.3147 F   0  0  0  0  0  0  0  0  0  0  0  0
    4.0847    1.5867    2.6481 H   0  0  0  0  0  0  0  0  0  0  0  0
   -4.7191   -3.1145   -1.4960 H   0  0  0  0  0  0  0  0  0  0  0  0
   -0.9789   -2.1633   -3.4364 H   0  0  0  0  0  0  0  0  0  0  0  0
    3.1449   -0.2050    1.4472 H   0  0  0  0  0  0  0  0  0  0  0  0
    0.1319    2.5600    0.6085 H   0  0  0  0  0  0  0  0  0  0  0  0
   -1.5131    0.6347    0.2638 C   0  0  0  0  0  0  0  0  0  0  0  0
  8  3  1  0
  9  5  2  0
 13 11  1  0
 14  6  1  0
 16 13  1  0
 16 15  1  0
 17 15  1  0
 18 16  1  0
 19  5  1  0
 20  2  2  0
 20  9  1  0
 21  9  1  0
 23  2  1  0
 23 19  2  0
 23 22  1  0
 24 17  1  0
 25 12  2  0
 26  4  1  0
 26  7  1  0
 26 10  1  0
 26 14  1  0
 27 13  1  0
 28 16  1  0
 29 24  1  0
 30 17  1  0
 31 12  1  0
 32  3  1  0
 32 15  1  0
 32 25  1  0
 33 13  1  0
 33 24  1  0
 34  5  1  0
 34 12  1  0
 34 14  1  0
 35  2  1  0
 36 24  1  0
 37 20  1  0
 38 14  1  0
 39 17  1  0
 40 32  1  0
 41  1  2  0
 41 19  1  0
 41 25  1  0
M  END
$$$$
