
     RDKit          3D

 44 46  0  0  0  0  0  0  0  0999 V2000
   -0.1156    3.4215   -0.0217 C   0  0  0  0  0  0  0  0  0  0  0  0
   -1.3856    0.0309   -2.3938 O   0  0  0  0  0  0  0  0  0  0  0  0
   -2.2471   -1.8949   -0.9870 H   0  0  0  0  0  0  0  0  0  0  0  0
   -0.0563    0.1720   -2.5339 C   0  0  0  0  0  0  0  0  0  0  0  0
    0.4610   -3.8875   -0.1253 C   0  0  0  0  0  0  0  0  0  0  0  0
    1.2702   -1.1973    3.3511 H   0  0  0  0  0  0  0  0  0  0  0  0
    0.8014    3.9276    0.8594 C   0  0  0  0  0  0  0  0  0  0  0  0
   -3.0125    1.2173   -2.6648 H   0  0  0  0  0  0  0  0  0  0  0  0
    0.4177   -1.5090   -0.8351 N   0  0  0  0  0  0  0  0  0  0  0  0
    1.2736    4.8902    0.6956 H   0  0  0  0  0  0  0  0  0  0  0  0
   -0.4260    1.5902    1.1583 C   0  0  0  0  0  0  0  0  0  0  0  0
    1.5086   -3.9028   -0.5305 H   0  0  0  0  0  0  0  0  0  0  0  0
    1.1557    1.8917   -3.1626 H   0  0  0  0  0  0  0  0  0  0  0  0
   -0.9697    0.2220    1.3418 C   0  0  0  0  0  0  0  0  0  0  0  0
    2.2483   -0.4027    2.1671 H   0  0  0  0  0  0  0  0  0  0  0  0
    0.1957   -0.8198    1.5022 C   0  0  0  0  0  0  0  0  0  0  0  0
   -1.7568   -2.6779   -0.4376 C   0  0  0  0  0  0  0  0  0  0  0  0
   -1.2674    3.0656   -3.4418 H   0  0  0  0  0  0  0  0  0  0  0  0
   -0.3093   -2.7392   -0.8773 C   0  0  0  0  0  0  0  0  0  0  0  0
    1.1171    3.1640    1.9816 C   0  0  0  0  0  0  0  0  0  0  0  0
    1.8601   -0.0346    0.0257 O   0  0  0  0  0  0  0  0  0  0  0  0
    0.8471    0.9216    3.2429 C   0  0  0  0  0  0  0  0  0  0  0  0
    0.0045    0.7918    3.9009 H   0  0  0  0  0  0  0  0  0  0  0  0
   -0.0158   -4.8429   -0.3453 H   0  0  0  0  0  0  0  0  0  0  0  0
   -0.2464   -1.7879    1.7616 H   0  0  0  0  0  0  0  0  0  0  0  0
    0.9075   -0.8478    0.1512 C   0  0  0  0  0  0  0  0  0  0  0  0
    1.7060    1.3178    3.8323 H   0  0  0  0  0  0  0  0  0  0  0  0
   -1.9832    1.1764   -2.7066 C   0  0  0  0  0  0  0  0  0  0  0  0
   -0.7016    2.2770    0.1412 N   0  0  0  0  0  0  0  0  0  0  0  0
   -1.0490    2.0820   -3.1027 C   0  0  0  0  0  0  0  0  0  0  0  0
    0.5321    1.9137    2.1533 C   0  0  0  0  0  0  0  0  0  0  0  0
    1.8493   -0.5688   -2.0913 H   0  0  0  0  0  0  0  0  0  0  0  0
   -0.3540    3.9993   -0.8854 H   0  0  0  0  0  0  0  0  0  0  0  0
   -1.5866    0.0187    0.4732 H   0  0  0  0  0  0  0  0  0  0  0  0
    0.8975   -1.7143   -2.8578 H   0  0  0  0  0  0  0  0  0  0  0  0
   -0.3261   -3.0031   -1.8955 H   0  0  0  0  0  0  0  0  0  0  0  0
    0.1972    1.4435   -2.9126 C   0  0  0  0  0  0  0  0  0  0  0  0
   -1.6363    0.0909    2.2271 H   0  0  0  0  0  0  0  0  0  0  0  0
    1.2450   -0.4467    2.5885 C   0  0  0  0  0  0  0  0  0  0  0  0
    0.8319   -0.9695   -2.1846 C   0  0  0  0  0  0  0  0  0  0  0  0
    0.4831   -3.7234    0.8878 H   0  0  0  0  0  0  0  0  0  0  0  0
   -1.8847   -2.5203    0.5841 H   0  0  0  0  0  0  0  0  0  0  0  0
   -2.3177   -3.6601   -0.7016 H   0  0  0  0  0  0  0  0  0  0  0  0
    1.8368    3.5245    2.6678 H   0  0  0  0  0  0  0  0  0  0  0  0
  4  2  1  0
  7  1  2  0
 10  7  1  0
 12  5  1  0
 14 11  1  0
 16 14  1  0
 17  3  1  0
 19  5  1  0
 19  9  1  0
 19 17  1  0
 20  7  1  0
 23 22  1  0
 24  5  1  0
 25 16  1  0
 26  9  1  0
 26 16  1  0
 26 21  2  0
 27 22  1  0
 28  2  1  0
 28  8  1  0
 29  1  1  0
 29 11  2  0
 30 18  1  0
 30 28  2  0
 31 11  1  0
 31 20  2  0
 31 22  1  0
 33  1  1  0
 34 14  1  0
 36 19  1  0
 37  4  2  0
 37 13  1  0
 37 30  1  0
 38 14  1  0
 39  6  1  0
 39 15  1  0
 39 16  1  0
 39 22  1  0
 40  4  1  0
 40  9  1  0
 40 32  1  0
 40 35  1  0
 41  5  1  0
 42 17  1  0
 43 17  1  0
 44 20  1  0
M  END
$$$$
