
     RDKit          3D

 42 44  0  0  0  0  0  0  0  0999 V2000
    0.4302    2.1601   -1.7015 H   0  0  0  0  0  0  0  0  0  0  0  0
    0.8436   -1.9160   -2.8259 C   0  0  0  0  0  0  0  0  0  0  0  0
    0.4856    4.3747    5.7952 H   0  0  0  0  0  0  0  0  0  0  0  0
    1.1862   -1.3093    0.4740 H   0  0  0  0  0  0  0  0  0  0  0  0
   -1.0991   -1.6408    1.1075 H   0  0  0  0  0  0  0  0  0  0  0  0
   -0.8885   -1.3280    0.0889 C   0  0  0  0  0  0  0  0  0  0  0  0
    2.1329    0.3755   -2.4111 H   0  0  0  0  0  0  0  0  0  0  0  0
    0.5501    1.7805    5.7505 O   0  0  0  0  0  0  0  0  0  0  0  0
   -1.6837   -0.0342   -1.9340 H   0  0  0  0  0  0  0  0  0  0  0  0
    1.7866    0.4470   -0.6687 H   0  0  0  0  0  0  0  0  0  0  0  0
    0.6527   -2.8287   -0.2996 H   0  0  0  0  0  0  0  0  0  0  0  0
   -0.6869    0.7275    1.0755 N   0  0  0  0  0  0  0  0  0  0  0  0
    0.5407   -1.7038   -0.3458 C   0  0  0  0  0  0  0  0  0  0  0  0
    0.2553    2.5007    4.6596 C   0  0  0  0  0  0  0  0  0  0  0  0
    0.4893   -5.5113   -5.2459 H   0  0  0  0  0  0  0  0  0  0  0  0
   -1.1038    0.1442    0.0148 N   0  0  0  0  0  0  0  0  0  0  0  0
    0.7335    2.0093    6.3756 H   0  0  0  0  0  0  0  0  0  0  0  0
   -0.8079   -6.1799   -3.0943 H   0  0  0  0  0  0  0  0  0  0  0  0
   -0.0367    1.9243    3.4897 C   0  0  0  0  0  0  0  0  0  0  0  0
   -0.8985    2.7813    0.4076 H   0  0  0  0  0  0  0  0  0  0  0  0
   -0.2589   -4.2155   -2.3810 C   0  0  0  0  0  0  0  0  0  0  0  0
   -0.3610    2.6745    2.3623 C   0  0  0  0  0  0  0  0  0  0  0  0
   -0.3933    4.0269    2.4878 C   0  0  0  0  0  0  0  0  0  0  0  0
    0.1598    1.1181   -1.9340 C   0  0  0  0  0  0  0  0  0  0  0  0
    0.9074   -1.2274   -1.6479 C   0  0  0  0  0  0  0  0  0  0  0  0
   -0.3367   -5.2574   -3.2287 C   0  0  0  0  0  0  0  0  0  0  0  0
   -0.1184    5.7343    3.7369 H   0  0  0  0  0  0  0  0  0  0  0  0
   -1.8486    1.5941   -1.3281 H   0  0  0  0  0  0  0  0  0  0  0  0
   -1.1751    0.7552   -1.2974 C   0  0  0  0  0  0  0  0  0  0  0  0
    0.3220   -4.9219   -4.3283 C   0  0  0  0  0  0  0  0  0  0  0  0
   -0.0107    0.8676    3.4166 H   0  0  0  0  0  0  0  0  0  0  0  0
   -0.7308   -4.1772   -1.4653 H   0  0  0  0  0  0  0  0  0  0  0  0
    0.7712   -3.7359   -4.2470 O   0  0  0  0  0  0  0  0  0  0  0  0
    1.2136   -1.5320   -3.7762 H   0  0  0  0  0  0  0  0  0  0  0  0
    0.4260   -3.2638   -3.0444 C   0  0  0  0  0  0  0  0  0  0  0  0
   -0.6772    2.0636    1.1486 C   0  0  0  0  0  0  0  0  0  0  0  0
    0.2314    3.8712    4.7785 C   0  0  0  0  0  0  0  0  0  0  0  0
   -0.1028    4.6309    3.6417 C   0  0  0  0  0  0  0  0  0  0  0  0
   -1.5926   -1.7981   -0.5253 H   0  0  0  0  0  0  0  0  0  0  0  0
    1.3583    0.1993   -1.6802 C   0  0  0  0  0  0  0  0  0  0  0  0
   -0.0163    1.1603   -3.0558 H   0  0  0  0  0  0  0  0  0  0  0  0
   -0.6488    4.6601    1.6553 H   0  0  0  0  0  0  0  0  0  0  0  0
  6  5  1  0
 13  4  1  0
 13  6  1  0
 13 11  1  0
 14  8  1  0
 16  6  1  0
 16 12  1  0
 17  8  1  0
 19 14  2  0
 22 19  1  0
 23 22  2  0
 24  1  1  0
 25  2  2  3
 25 13  1  0
 26 18  1  0
 26 21  1  0
 29  9  1  0
 29 16  1  0
 29 24  1  0
 29 28  1  0
 30 15  1  0
 30 26  2  0
 31 19  1  0
 32 21  1  0
 33 30  1  0
 34  2  1  0
 35  2  1  0
 35 21  2  0
 35 33  1  0
 36 12  2  3
 36 20  1  0
 36 22  1  0
 37  3  1  0
 37 14  1  0
 38 23  1  0
 38 27  1  0
 38 37  2  0
 39  6  1  0
 40  7  1  0
 40 10  1  0
 40 24  1  0
 40 25  1  0
 41 24  1  0
 42 23  1  0
M  END
$$$$
