
     RDKit          3D

 41 43  0  0  0  0  0  0  0  0999 V2000
   -1.7146    1.2103   -2.0502 C   0  0  0  0  0  0  0  0  0  0  0  0
    4.1435   -0.6054   -1.3752 H   0  0  0  0  0  0  0  0  0  0  0  0
   -3.8982    1.6199   -1.1085 C   0  0  0  0  0  0  0  0  0  0  0  0
   -4.7737    2.2488   -1.1070 H   0  0  0  0  0  0  0  0  0  0  0  0
   -2.9321    2.8634   -2.6231 H   0  0  0  0  0  0  0  0  0  0  0  0
    0.7203    1.1708    1.5262 N   0  0  0  0  0  0  0  0  0  0  0  0
    2.1060   -2.2927   -1.0082 C   0  0  0  0  0  0  0  0  0  0  0  0
    1.9392   -1.7793   -1.9561 H   0  0  0  0  0  0  0  0  0  0  0  0
   -0.1239   -0.3181    3.2328 C   0  0  0  0  0  0  0  0  0  0  0  0
    2.5951   -3.2155   -1.1873 H   0  0  0  0  0  0  0  0  0  0  0  0
    0.0959    1.1322    2.8262 C   0  0  0  0  0  0  0  0  0  0  0  0
    2.0759    2.6697    0.3122 H   0  0  0  0  0  0  0  0  0  0  0  0
   -1.3412   -2.1664    0.4105 C   0  0  0  0  0  0  0  0  0  0  0  0
   -2.6519   -0.2877   -0.3592 C   0  0  0  0  0  0  0  0  0  0  0  0
    3.0648   -1.8499    0.8620 H   0  0  0  0  0  0  0  0  0  0  0  0
   -0.8736    1.6136    2.7309 H   0  0  0  0  0  0  0  0  0  0  0  0
    2.2580   -0.0627    0.1388 N   0  0  0  0  0  0  0  0  0  0  0  0
   -4.5613    0.2298    0.3193 H   0  0  0  0  0  0  0  0  0  0  0  0
   -1.5712    0.0306   -1.2232 C   0  0  0  0  0  0  0  0  0  0  0  0
    2.9676   -1.3898   -0.0829 C   0  0  0  0  0  0  0  0  0  0  0  0
   -0.2423   -1.8196   -0.4317 C   0  0  0  0  0  0  0  0  0  0  0  0
    1.7799    2.2118   -0.6157 C   0  0  0  0  0  0  0  0  0  0  0  0
    1.2495   -1.1998    2.4056 S   0  0  0  0  0  0  0  0  0  0  0  0
   -1.0901   -0.6845    2.7905 H   0  0  0  0  0  0  0  0  0  0  0  0
    4.2017   -1.1912   -0.6671 O   0  0  0  0  0  0  0  0  0  0  0  0
    0.6713    1.6687    3.5782 H   0  0  0  0  0  0  0  0  0  0  0  0
   -3.2556   -1.7100    1.1018 H   0  0  0  0  0  0  0  0  0  0  0  0
    1.4548    0.1363    1.2017 C   0  0  0  0  0  0  0  0  0  0  0  0
   -0.9080    1.4666   -2.7235 H   0  0  0  0  0  0  0  0  0  0  0  0
    0.6786    2.0936   -0.5690 H   0  0  0  0  0  0  0  0  0  0  0  0
    0.8369   -2.6079   -0.3983 O   0  0  0  0  0  0  0  0  0  0  0  0
    2.3925    0.9228   -0.8757 C   0  0  0  0  0  0  0  0  0  0  0  0
   -3.7788    0.5157   -0.3146 C   0  0  0  0  0  0  0  0  0  0  0  0
   -2.4459   -1.4335    0.4611 C   0  0  0  0  0  0  0  0  0  0  0  0
   -1.1852   -3.0326    1.0142 H   0  0  0  0  0  0  0  0  0  0  0  0
    0.3944   -0.4220   -1.9351 H   0  0  0  0  0  0  0  0  0  0  0  0
   -0.3801   -0.7108   -1.2560 C   0  0  0  0  0  0  0  0  0  0  0  0
    2.0044    2.8850   -1.4752 H   0  0  0  0  0  0  0  0  0  0  0  0
   -2.8657    1.9882   -1.9895 C   0  0  0  0  0  0  0  0  0  0  0  0
    3.0375    0.6369   -1.8668 O   0  0  0  0  0  0  0  0  0  0  0  0
   -0.0747   -0.5352    4.2872 H   0  0  0  0  0  0  0  0  0  0  0  0
  4  3  1  0
  8  7  1  0
 10  7  1  0
 11  6  1  0
 11  9  1  0
 16 11  1  0
 19  1  2  0
 19 14  1  0
 20  7  1  0
 20 15  1  0
 20 17  1  0
 21 13  1  0
 22 12  1  0
 23  9  1  0
 24  9  1  0
 25  2  1  0
 25 20  1  0
 26 11  1  0
 28  6  2  0
 28 17  1  0
 28 23  1  0
 29  1  1  0
 30 22  1  0
 31  7  1  0
 31 21  1  0
 32 17  1  0
 32 22  1  0
 33  3  1  0
 33 14  2  0
 33 18  1  0
 34 13  2  0
 34 14  1  0
 34 27  1  0
 35 13  1  0
 37 19  1  0
 37 21  2  0
 37 36  1  0
 38 22  1  0
 39  1  1  0
 39  3  2  0
 39  5  1  0
 40 32  2  0
 41  9  1  0
M  END
$$$$
