
     RDKit          3D

 42 44  0  0  0  0  0  0  0  0999 V2000
    0.8620    1.2981   -0.8469 C   0  0  0  0  0  0  0  0  0  0  0  0
   -3.9257    4.7365    0.6035 H   0  0  0  0  0  0  0  0  0  0  0  0
   -2.7885   -0.9217    1.5381 O   0  0  0  0  0  0  0  0  0  0  0  0
   -2.8711    1.4427    0.9429 C   0  0  0  0  0  0  0  0  0  0  0  0
    2.4405   -3.5969   -0.0305 C   0  0  0  0  0  0  0  0  0  0  0  0
    0.3298    0.1462   -0.2135 C   0  0  0  0  0  0  0  0  0  0  0  0
   -2.9781    3.8702   -0.5809 H   0  0  0  0  0  0  0  0  0  0  0  0
    3.9578   -2.1948   -2.7955 H   0  0  0  0  0  0  0  0  0  0  0  0
   -1.8409   -0.7680    1.0984 H   0  0  0  0  0  0  0  0  0  0  0  0
    3.0725   -4.4863   -0.0633 H   0  0  0  0  0  0  0  0  0  0  0  0
    3.3857   -2.8878   -2.2277 C   0  0  0  0  0  0  0  0  0  0  0  0
   -3.1371    3.9236    0.4196 C   0  0  0  0  0  0  0  0  0  0  0  0
   -5.0458   -0.5956    2.5497 H   0  0  0  0  0  0  0  0  0  0  0  0
    2.2825   -3.3057    1.0297 H   0  0  0  0  0  0  0  0  0  0  0  0
    1.1094   -1.0829   -0.2126 C   0  0  0  0  0  0  0  0  0  0  0  0
   -3.4031    0.2654    1.5357 C   0  0  0  0  0  0  0  0  0  0  0  0
   -1.5425    1.3839    0.3223 C   0  0  0  0  0  0  0  0  0  0  0  0
    0.4355    3.3887   -1.2957 H   0  0  0  0  0  0  0  0  0  0  0  0
    2.3717   -1.1805   -0.7893 C   0  0  0  0  0  0  0  0  0  0  0  0
    5.0913   -1.4629   -0.5499 H   0  0  0  0  0  0  0  0  0  0  0  0
   -3.6909    2.6134    1.0316 C   0  0  0  0  0  0  0  0  0  0  0  0
    5.0870   -3.0839   -0.0263 H   0  0  0  0  0  0  0  0  0  0  0  0
   -4.8842    2.5830    1.6002 C   0  0  0  0  0  0  0  0  0  0  0  0
   -0.9061    0.1580    0.3875 N   0  0  0  0  0  0  0  0  0  0  0  0
   -4.6940    0.2758    2.1328 C   0  0  0  0  0  0  0  0  0  0  0  0
    3.1729   -2.4781   -0.7790 C   0  0  0  0  0  0  0  0  0  0  0  0
   -6.4249    1.4544    2.6389 H   0  0  0  0  0  0  0  0  0  0  0  0
   -2.2676    4.2321    0.8342 H   0  0  0  0  0  0  0  0  0  0  0  0
    0.6377   -1.8902    0.2892 H   0  0  0  0  0  0  0  0  0  0  0  0
    2.8717   -0.0429   -1.4145 C   0  0  0  0  0  0  0  0  0  0  0  0
    4.3165   -1.8837    0.9295 H   0  0  0  0  0  0  0  0  0  0  0  0
    0.0545    2.4304   -0.8046 C   0  0  0  0  0  0  0  0  0  0  0  0
    4.4655   -2.1790   -0.0544 C   0  0  0  0  0  0  0  0  0  0  0  0
    2.4725   -3.0735   -2.7124 H   0  0  0  0  0  0  0  0  0  0  0  0
    2.5457    2.0518   -1.9255 H   0  0  0  0  0  0  0  0  0  0  0  0
   -5.4899    3.5085    1.6551 H   0  0  0  0  0  0  0  0  0  0  0  0
    2.1636    1.1654   -1.4452 C   0  0  0  0  0  0  0  0  0  0  0  0
    3.9595   -3.8123   -2.2626 H   0  0  0  0  0  0  0  0  0  0  0  0
   -5.4249    1.4450    2.1817 C   0  0  0  0  0  0  0  0  0  0  0  0
    3.8127   -0.0910   -1.8692 H   0  0  0  0  0  0  0  0  0  0  0  0
    1.4848   -3.8344   -0.5578 H   0  0  0  0  0  0  0  0  0  0  0  0
   -1.0680    2.4788   -0.2632 N   0  0  0  0  0  0  0  0  0  0  0  0
  6  1  1  0
  9  3  1  0
 10  5  1  0
 11  8  1  0
 12  2  1  0
 12  7  1  0
 14  5  1  0
 15  6  2  0
 16  3  1  0
 16  4  2  0
 17  4  1  0
 19 15  1  0
 21  4  1  0
 21 12  1  0
 23 21  2  0
 24  6  1  0
 24 17  2  0
 25 13  1  0
 25 16  1  0
 26  5  1  0
 26 11  1  0
 26 19  1  0
 28 12  1  0
 29 15  1  0
 30 19  2  0
 32  1  1  0
 32 18  1  0
 33 20  1  0
 33 22  1  0
 33 26  1  0
 33 31  1  0
 34 11  1  0
 36 23  1  0
 37  1  2  0
 37 30  1  0
 37 35  1  0
 38 11  1  0
 39 23  1  0
 39 25  2  0
 39 27  1  0
 40 30  1  0
 41  5  1  0
 42 17  1  0
 42 32  2  0
M  END
$$$$
