
     RDKit          3D

 44 45  0  0  0  0  0  0  0  0999 V2000
   -1.6295    1.1115   -2.4156 H   0  0  0  0  0  0  0  0  0  0  0  0
   -1.1257    1.2995    0.9996 O   0  0  0  0  0  0  0  0  0  0  0  0
   -2.8904   -2.6132    1.8303 H   0  0  0  0  0  0  0  0  0  0  0  0
    2.1947    1.4743   -1.9234 C   0  0  0  0  0  0  0  0  0  0  0  0
    1.1508    0.1683    4.2380 H   0  0  0  0  0  0  0  0  0  0  0  0
    1.2929    1.0248    0.0129 H   0  0  0  0  0  0  0  0  0  0  0  0
    1.5337   -1.1061    2.6673 O   0  0  0  0  0  0  0  0  0  0  0  0
   -3.2702    2.6647    1.3795 H   0  0  0  0  0  0  0  0  0  0  0  0
    2.7213   -0.8463    0.4699 H   0  0  0  0  0  0  0  0  0  0  0  0
    0.9893   -1.5186    1.4946 C   0  0  0  0  0  0  0  0  0  0  0  0
   -2.9654    4.3614    1.2138 H   0  0  0  0  0  0  0  0  0  0  0  0
    0.3081    0.5746   -3.1487 C   0  0  0  0  0  0  0  0  0  0  0  0
    0.5314   -0.3886    3.5247 C   0  0  0  0  0  0  0  0  0  0  0  0
    3.1379    1.1521   -1.5378 H   0  0  0  0  0  0  0  0  0  0  0  0
   -0.6825   -2.6281    0.0961 C   0  0  0  0  0  0  0  0  0  0  0  0
    1.2974    1.8465   -0.7234 C   0  0  0  0  0  0  0  0  0  0  0  0
   -1.6019   -3.1228   -0.0435 H   0  0  0  0  0  0  0  0  0  0  0  0
    2.2565    2.3185   -2.5772 H   0  0  0  0  0  0  0  0  0  0  0  0
    0.3149    1.4166   -3.8217 H   0  0  0  0  0  0  0  0  0  0  0  0
   -2.5459   -3.2560    3.3960 H   0  0  0  0  0  0  0  0  0  0  0  0
   -0.2468    2.9721   -1.7133 H   0  0  0  0  0  0  0  0  0  0  0  0
   -0.6534    0.9081   -2.0079 C   0  0  0  0  0  0  0  0  0  0  0  0
   -1.0558    2.1649    0.1534 C   0  0  0  0  0  0  0  0  0  0  0  0
    2.1528   -1.1570   -2.3636 S   0  0  0  0  0  0  0  0  0  0  0  0
    1.2727   -1.6536   -0.9300 C   0  0  0  0  0  0  0  0  0  0  0  0
   -0.2849   -2.5747   -1.9757 H   0  0  0  0  0  0  0  0  0  0  0  0
   -0.9448   -2.4787    2.4629 O   0  0  0  0  0  0  0  0  0  0  0  0
   -2.5275    3.4381    1.3388 C   0  0  0  0  0  0  0  0  0  0  0  0
    0.0028   -1.1211    4.0133 H   0  0  0  0  0  0  0  0  0  0  0  0
    0.0165   -0.3112   -3.6161 H   0  0  0  0  0  0  0  0  0  0  0  0
    1.6978    2.7511   -0.2589 H   0  0  0  0  0  0  0  0  0  0  0  0
    1.6910   -1.9727   -3.4148 O   0  0  0  0  0  0  0  0  0  0  0  0
   -0.7320    0.0342   -1.3468 H   0  0  0  0  0  0  0  0  0  0  0  0
    0.0473   -2.3197   -1.0329 C   0  0  0  0  0  0  0  0  0  0  0  0
   -1.6821    3.2470    0.2137 O   0  0  0  0  0  0  0  0  0  0  0  0
   -0.2434   -2.2335    1.3482 C   0  0  0  0  0  0  0  0  0  0  0  0
   -2.1991   -3.1727    2.4132 C   0  0  0  0  0  0  0  0  0  0  0  0
    1.6696    0.3736   -2.7042 N   0  0  0  0  0  0  0  0  0  0  0  0
    3.5430   -1.1182   -2.0501 O   0  0  0  0  0  0  0  0  0  0  0  0
   -0.1550    0.2050    2.9570 H   0  0  0  0  0  0  0  0  0  0  0  0
    1.7639   -1.2876    0.3398 C   0  0  0  0  0  0  0  0  0  0  0  0
   -2.0468   -4.1208    1.9429 H   0  0  0  0  0  0  0  0  0  0  0  0
   -1.9367    3.4226    2.2363 H   0  0  0  0  0  0  0  0  0  0  0  0
   -0.1664    2.0720   -1.1367 C   0  0  0  0  0  0  0  0  0  0  0  0
 10  7  1  0
 13  5  1  0
 13  7  1  0
 14  4  1  0
 16  4  1  0
 16  6  1  0
 17 15  1  0
 18  4  1  0
 19 12  1  0
 22  1  1  0
 22 12  1  0
 23  2  2  0
 25 24  1  0
 28  8  1  0
 28 11  1  0
 29 13  1  0
 30 12  1  0
 31 16  1  0
 32 24  2  0
 33 22  1  0
 34 15  2  0
 34 25  1  0
 34 26  1  0
 35 23  1  0
 35 28  1  0
 36 10  2  0
 36 15  1  0
 36 27  1  0
 37  3  1  0
 37 20  1  0
 37 27  1  0
 38  4  1  0
 38 12  1  0
 38 24  1  0
 39 24  2  0
 40 13  1  0
 41  9  1  0
 41 10  1  0
 41 25  2  0
 42 37  1  0
 43 28  1  0
 44 16  1  0
 44 21  1  0
 44 22  1  0
 44 23  1  0
M  END
$$$$
