
     RDKit          3D

 43 45  0  0  0  0  0  0  0  0999 V2000
    1.4176    0.7533    1.7460 C   0  0  0  0  0  0  0  0  0  0  0  0
   -0.3954    2.9534    1.7625 C   0  0  0  0  0  0  0  0  0  0  0  0
    1.9808   -2.5503   -0.0015 C   0  0  0  0  0  0  0  0  0  0  0  0
    1.8839   -3.8968   -1.5560 H   0  0  0  0  0  0  0  0  0  0  0  0
   -1.7125   -0.6122    1.1141 C   0  0  0  0  0  0  0  0  0  0  0  0
   -3.3875    2.2965   -0.2294 C   0  0  0  0  0  0  0  0  0  0  0  0
   -0.4885   -3.6504   -1.9442 H   0  0  0  0  0  0  0  0  0  0  0  0
    3.7339    0.1584   -0.1659 H   0  0  0  0  0  0  0  0  0  0  0  0
   -0.8268   -2.0591   -0.5916 C   0  0  0  0  0  0  0  0  0  0  0  0
   -1.0465   -1.7457    0.7250 C   0  0  0  0  0  0  0  0  0  0  0  0
    3.7298   -1.1207   -1.4294 H   0  0  0  0  0  0  0  0  0  0  0  0
    2.0648   -0.0534    1.7956 H   0  0  0  0  0  0  0  0  0  0  0  0
    0.4436    1.9830   -1.4714 C   0  0  0  0  0  0  0  0  0  0  0  0
   -1.3009   -1.1480   -1.5299 C   0  0  0  0  0  0  0  0  0  0  0  0
    0.0908    2.4130    0.6015 C   0  0  0  0  0  0  0  0  0  0  0  0
    3.1264   -0.5789   -0.7314 C   0  0  0  0  0  0  0  0  0  0  0  0
    2.7749   -1.4806    0.1379 O   0  0  0  0  0  0  0  0  0  0  0  0
    0.9119    1.2831    2.9431 C   0  0  0  0  0  0  0  0  0  0  0  0
    1.3887   -2.9949   -1.2640 C   0  0  0  0  0  0  0  0  0  0  0  0
   -0.1813   -4.0349   -0.2786 H   0  0  0  0  0  0  0  0  0  0  0  0
   -0.3271    2.7629    3.8925 H   0  0  0  0  0  0  0  0  0  0  0  0
    0.9982    1.3109    0.5567 C   0  0  0  0  0  0  0  0  0  0  0  0
   -1.1341   -1.3478   -2.5831 H   0  0  0  0  0  0  0  0  0  0  0  0
   -1.9805   -0.0084   -1.1847 C   0  0  0  0  0  0  0  0  0  0  0  0
   -0.6900   -2.4415    1.4492 H   0  0  0  0  0  0  0  0  0  0  0  0
    2.0356    0.1307   -1.4567 C   0  0  0  0  0  0  0  0  0  0  0  0
    1.5325   -2.2542   -2.0130 H   0  0  0  0  0  0  0  0  0  0  0  0
    0.0133    2.3878    2.9440 C   0  0  0  0  0  0  0  0  0  0  0  0
   -2.8778    1.3230    0.6449 O   0  0  0  0  0  0  0  0  0  0  0  0
   -2.1781    0.2759    0.1745 C   0  0  0  0  0  0  0  0  0  0  0  0
    1.1986    0.8458    3.8468 H   0  0  0  0  0  0  0  0  0  0  0  0
   -4.1122    1.8488   -0.9297 H   0  0  0  0  0  0  0  0  0  0  0  0
    1.8132   -3.1392    1.1279 O   0  0  0  0  0  0  0  0  0  0  0  0
   -1.8912   -0.3884    2.1559 H   0  0  0  0  0  0  0  0  0  0  0  0
   -1.0813    3.7661    1.7691 H   0  0  0  0  0  0  0  0  0  0  0  0
   -3.9220    3.0371    0.3417 H   0  0  0  0  0  0  0  0  0  0  0  0
    1.2391    1.0883   -0.7661 N   0  0  0  0  0  0  0  0  0  0  0  0
    1.8869    0.0059   -2.6297 O   0  0  0  0  0  0  0  0  0  0  0  0
    0.4462    2.0018   -2.5365 H   0  0  0  0  0  0  0  0  0  0  0  0
   -2.3357    0.6542   -1.9322 H   0  0  0  0  0  0  0  0  0  0  0  0
   -0.1758    2.7838   -0.6965 N   0  0  0  0  0  0  0  0  0  0  0  0
   -0.0683   -3.2657   -1.0218 C   0  0  0  0  0  0  0  0  0  0  0  0
   -2.5974    2.7076   -0.7858 H   0  0  0  0  0  0  0  0  0  0  0  0
 10  5  2  0
 10  9  1  0
 12  1  1  0
 14  9  2  0
 15  2  1  0
 16  8  1  0
 16 11  1  0
 17  3  1  0
 17 16  1  0
 18  1  2  0
 19  3  1  0
 19  4  1  0
 22  1  1  0
 22 15  2  0
 23 14  1  0
 24 14  1  0
 25 10  1  0
 26 16  1  0
 27 19  1  0
 28  2  2  0
 28 18  1  0
 28 21  1  0
 29  6  1  0
 30  5  1  0
 30 24  2  0
 30 29  1  0
 31 18  1  0
 32  6  1  0
 33  3  2  0
 34  5  1  0
 35  2  1  0
 36  6  1  0
 37 13  1  0
 37 22  1  0
 37 26  1  0
 38 26  2  0
 39 13  1  0
 40 24  1  0
 41 13  2  0
 41 15  1  0
 42  7  1  0
 42  9  1  0
 42 19  1  0
 42 20  1  0
 43  6  1  0
M  END
$$$$
