
     RDKit          3D

 42 44  0  0  0  0  0  0  0  0999 V2000
    0.7457   -1.6830    0.8814 H   0  0  0  0  0  0  0  0  0  0  0  0
    0.0230    3.2453    2.5856 H   0  0  0  0  0  0  0  0  0  0  0  0
   -1.8220    1.9282   -2.4596 H   0  0  0  0  0  0  0  0  0  0  0  0
   -1.2608   -0.9471   -3.7031 C   0  0  0  0  0  0  0  0  0  0  0  0
   -2.4438    0.4207    0.2591 H   0  0  0  0  0  0  0  0  0  0  0  0
   -1.5562   -2.2954   -3.5519 C   0  0  0  0  0  0  0  0  0  0  0  0
   -1.5392   -2.9282   -4.3955 H   0  0  0  0  0  0  0  0  0  0  0  0
   -0.0969    1.6985   -2.3110 H   0  0  0  0  0  0  0  0  0  0  0  0
    1.2543    0.0334    2.8219 C   0  0  0  0  0  0  0  0  0  0  0  0
   -2.2690   -4.4716   -1.1527 H   0  0  0  0  0  0  0  0  0  0  0  0
   -1.9644   -2.3245   -0.2441 H   0  0  0  0  0  0  0  0  0  0  0  0
   -1.3972   -4.8484   -2.6084 H   0  0  0  0  0  0  0  0  0  0  0  0
    0.7819    2.2958    1.0340 O   0  0  0  0  0  0  0  0  0  0  0  0
    1.1144    1.4822    3.2474 C   0  0  0  0  0  0  0  0  0  0  0  0
    1.6342    0.0565    1.4083 N   0  0  0  0  0  0  0  0  0  0  0  0
    0.7276    1.5096    4.3029 H   0  0  0  0  0  0  0  0  0  0  0  0
   -1.2385   -0.0631   -2.6344 C   0  0  0  0  0  0  0  0  0  0  0  0
   -1.0464   -0.5652   -4.6537 H   0  0  0  0  0  0  0  0  0  0  0  0
    3.1837    1.6563    3.9086 H   0  0  0  0  0  0  0  0  0  0  0  0
   -1.4884   -0.5530   -1.3707 C   0  0  0  0  0  0  0  0  0  0  0  0
   -1.0226    1.2291   -0.3082 H   0  0  0  0  0  0  0  0  0  0  0  0
    3.0021    1.9051    1.7681 C   0  0  0  0  0  0  0  0  0  0  0  0
   -1.4866    0.2879   -0.1536 C   0  0  0  0  0  0  0  0  0  0  0  0
    0.8532   -0.4950   -0.4697 H   0  0  0  0  0  0  0  0  0  0  0  0
   -0.7681    1.6702    2.2153 H   0  0  0  0  0  0  0  0  0  0  0  0
   -0.8473    1.5826   -3.8756 H   0  0  0  0  0  0  0  0  0  0  0  0
   -1.7757   -1.9357   -1.2411 C   0  0  0  0  0  0  0  0  0  0  0  0
    2.4900    2.1432    3.1835 C   0  0  0  0  0  0  0  0  0  0  0  0
   -0.7898   -0.3965    0.9415 O   0  0  0  0  0  0  0  0  0  0  0  0
   -1.8460   -2.7817   -2.3043 C   0  0  0  0  0  0  0  0  0  0  0  0
    2.0206   -0.5016    3.3359 H   0  0  0  0  0  0  0  0  0  0  0  0
    3.8207    1.1573    1.7673 H   0  0  0  0  0  0  0  0  0  0  0  0
    0.3463   -0.4861    2.9876 H   0  0  0  0  0  0  0  0  0  0  0  0
    0.6115   -0.6871    0.6260 C   0  0  0  0  0  0  0  0  0  0  0  0
    2.2256    1.3620   -0.1190 H   0  0  0  0  0  0  0  0  0  0  0  0
   -0.9776    1.3709   -2.8763 C   0  0  0  0  0  0  0  0  0  0  0  0
   -2.1625   -4.2536   -2.1692 C   0  0  0  0  0  0  0  0  0  0  0  0
    3.4301    2.8241    1.3698 H   0  0  0  0  0  0  0  0  0  0  0  0
    2.4237    3.1986    3.4050 H   0  0  0  0  0  0  0  0  0  0  0  0
    1.9337    1.3818    0.9169 C   0  0  0  0  0  0  0  0  0  0  0  0
    0.2204    2.2456    2.3032 C   0  0  0  0  0  0  0  0  0  0  0  0
   -3.0439   -4.4680   -2.6674 H   0  0  0  0  0  0  0  0  0  0  0  0
  6  4  2  0
  7  6  1  0
 14  9  1  0
 15  9  1  0
 16 14  1  0
 17  4  1  0
 18  4  1  0
 20 17  2  0
 23  5  1  0
 23 20  1  0
 23 21  1  0
 27 11  1  0
 27 20  1  0
 28 14  1  0
 28 19  1  0
 28 22  1  0
 29 23  1  0
 30  6  1  0
 30 27  2  0
 31  9  1  0
 32 22  1  0
 33  9  1  0
 34  1  1  0
 34 15  1  0
 34 24  1  0
 34 29  1  0
 36  3  1  0
 36  8  1  0
 36 17  1  0
 36 26  1  0
 37 10  1  0
 37 12  1  0
 37 30  1  0
 38 22  1  0
 39 28  1  0
 40 13  1  0
 40 15  1  0
 40 22  1  0
 40 35  1  0
 41  2  1  0
 41 13  1  0
 41 14  1  0
 41 25  1  0
 42 37  1  0
M  END
$$$$
