
     RDKit          3D

 43 45  0  0  0  0  0  0  0  0999 V2000
    4.4574    0.2663    1.2261 H   0  0  0  0  0  0  0  0  0  0  0  0
    3.9053    2.2293    2.9013 H   0  0  0  0  0  0  0  0  0  0  0  0
   -0.9448   -2.9319   -0.8462 C   0  0  0  0  0  0  0  0  0  0  0  0
   -0.2316    0.6031   -0.8330 N   0  0  0  0  0  0  0  0  0  0  0  0
    3.4536    0.6491    1.4038 C   0  0  0  0  0  0  0  0  0  0  0  0
   -0.3933   -1.7812    1.9876 C   0  0  0  0  0  0  0  0  0  0  0  0
   -1.3518   -3.5026    0.0003 H   0  0  0  0  0  0  0  0  0  0  0  0
   -1.1599    2.2138   -2.3244 C   0  0  0  0  0  0  0  0  0  0  0  0
   -3.1500    2.3171   -3.1308 H   0  0  0  0  0  0  0  0  0  0  0  0
   -1.3133    1.2539    1.2860 C   0  0  0  0  0  0  0  0  0  0  0  0
    0.2739   -4.6947   -1.5595 H   0  0  0  0  0  0  0  0  0  0  0  0
    1.5113    2.0243    2.3811 S   0  0  0  0  0  0  0  0  0  0  0  0
   -0.3028   -1.0956    3.2801 C   0  0  0  0  0  0  0  0  0  0  0  0
   -2.1155    1.0520   -3.8627 H   0  0  0  0  0  0  0  0  0  0  0  0
    0.2912    3.8764   -1.9641 N   0  0  0  0  0  0  0  0  0  0  0  0
    3.1804    1.6745    2.2667 C   0  0  0  0  0  0  0  0  0  0  0  0
    0.4294   -3.6615   -1.2348 C   0  0  0  0  0  0  0  0  0  0  0  0
    2.2980   -0.6479    0.0928 H   0  0  0  0  0  0  0  0  0  0  0  0
    0.8526   -3.7310    0.5990 H   0  0  0  0  0  0  0  0  0  0  0  0
    1.3886   -3.6036   -0.1731 O   0  0  0  0  0  0  0  0  0  0  0  0
    0.9001   -3.1155   -2.0520 H   0  0  0  0  0  0  0  0  0  0  0  0
    1.1139    0.8097    1.1494 C   0  0  0  0  0  0  0  0  0  0  0  0
   -1.2342    4.0946   -3.2746 H   0  0  0  0  0  0  0  0  0  0  0  0
   -0.1974   -1.8088    4.0827 H   0  0  0  0  0  0  0  0  0  0  0  0
   -0.1999    0.4454    0.6649 C   0  0  0  0  0  0  0  0  0  0  0  0
   -2.2318    0.9558    0.8704 H   0  0  0  0  0  0  0  0  0  0  0  0
   -0.5808   -0.7462   -2.3469 H   0  0  0  0  0  0  0  0  0  0  0  0
   -0.6965   -1.5931   -0.4619 C   0  0  0  0  0  0  0  0  0  0  0  0
    0.6734    2.8447   -1.1718 C   0  0  0  0  0  0  0  0  0  0  0  0
   -1.5801   -2.9939   -1.6802 H   0  0  0  0  0  0  0  0  0  0  0  0
   -0.2570    1.7561   -1.4013 C   0  0  0  0  0  0  0  0  0  0  0  0
   -1.3399    1.1634    2.3469 H   0  0  0  0  0  0  0  0  0  0  0  0
   -2.3606    1.5820   -2.8790 C   0  0  0  0  0  0  0  0  0  0  0  0
    0.4949   -0.3863    3.3545 H   0  0  0  0  0  0  0  0  0  0  0  0
   -0.6191   -0.5683   -1.4278 N   0  0  0  0  0  0  0  0  0  0  0  0
   -2.7379    0.8307   -2.1579 H   0  0  0  0  0  0  0  0  0  0  0  0
    2.2676    0.1976    0.7930 C   0  0  0  0  0  0  0  0  0  0  0  0
   -0.7756    3.5016   -2.6199 N   0  0  0  0  0  0  0  0  0  0  0  0
    1.4804    2.9025   -0.6278 H   0  0  0  0  0  0  0  0  0  0  0  0
   -0.4524   -1.0013    0.8032 C   0  0  0  0  0  0  0  0  0  0  0  0
   -1.2515   -0.5630    3.5174 H   0  0  0  0  0  0  0  0  0  0  0  0
   -1.1106    2.2421    1.0414 H   0  0  0  0  0  0  0  0  0  0  0  0
   -0.3835   -3.0598    1.9811 O   0  0  0  0  0  0  0  0  0  0  0  0
  5  1  1  0
  7  3  1  0
 13  6  1  0
 16  2  1  0
 16  5  2  0
 16 12  1  0
 17  3  1  0
 17 11  1  0
 20 17  1  0
 20 19  1  0
 21 17  1  0
 22 12  1  0
 24 13  1  0
 25  4  1  0
 25 10  1  0
 25 22  1  0
 26 10  1  0
 28  3  1  0
 29 15  2  0
 30  3  1  0
 31  4  1  0
 31  8  2  0
 31 29  1  0
 32 10  1  0
 33  8  1  0
 33  9  1  0
 33 14  1  0
 34 13  1  0
 35  4  1  0
 35 27  1  0
 35 28  1  0
 36 33  1  0
 37  5  1  0
 37 18  1  0
 37 22  2  0
 38  8  1  0
 38 15  1  0
 38 23  1  0
 39 29  1  0
 40  6  1  0
 40 25  1  0
 40 28  2  0
 41 13  1  0
 42 10  1  0
 43  6  2  0
M  END
$$$$
