
     RDKit          3D

 44 46  0  0  0  0  0  0  0  0999 V2000
   -2.8905    2.5664    0.9738 O   0  0  0  0  0  0  0  0  0  0  0  0
   -0.0573   -0.9464   -3.0182 C   0  0  0  0  0  0  0  0  0  0  0  0
   -3.6394   -0.7222    0.2568 H   0  0  0  0  0  0  0  0  0  0  0  0
    4.0203    1.9198    2.8414 H   0  0  0  0  0  0  0  0  0  0  0  0
    4.6726   -1.2233    2.9088 H   0  0  0  0  0  0  0  0  0  0  0  0
    0.0682    1.9094    1.4651 C   0  0  0  0  0  0  0  0  0  0  0  0
   -2.4078   -0.9478   -2.1807 C   0  0  0  0  0  0  0  0  0  0  0  0
    0.0718   -1.1761   -0.8178 H   0  0  0  0  0  0  0  0  0  0  0  0
    0.8457   -0.6407    2.2823 C   0  0  0  0  0  0  0  0  0  0  0  0
   -0.2680    2.8806    1.1635 H   0  0  0  0  0  0  0  0  0  0  0  0
   -1.5052    1.3085   -1.5811 C   0  0  0  0  0  0  0  0  0  0  0  0
    2.1093    2.4201    1.5380 H   0  0  0  0  0  0  0  0  0  0  0  0
   -0.1520   -1.7681   -1.7034 C   0  0  0  0  0  0  0  0  0  0  0  0
   -1.5792    1.1790   -3.0246 C   0  0  0  0  0  0  0  0  0  0  0  0
   -2.6547    1.1531    1.3875 S   0  0  0  0  0  0  0  0  0  0  0  0
   -1.9268   -2.5385   -0.7459 H   0  0  0  0  0  0  0  0  0  0  0  0
   -3.4197    0.5925    2.4684 O   0  0  0  0  0  0  0  0  0  0  0  0
    5.1553    0.7510    2.3123 H   0  0  0  0  0  0  0  0  0  0  0  0
   -1.6248   -2.1975   -1.6976 C   0  0  0  0  0  0  0  0  0  0  0  0
   -0.4688   -0.3701    2.0699 C   0  0  0  0  0  0  0  0  0  0  0  0
    3.1793   -1.3862    3.7544 H   0  0  0  0  0  0  0  0  0  0  0  0
   -0.6842    1.6767   -3.5070 H   0  0  0  0  0  0  0  0  0  0  0  0
   -2.3299    0.1786   -1.1045 C   0  0  0  0  0  0  0  0  0  0  0  0
   -3.4098   -1.1800   -2.4268 H   0  0  0  0  0  0  0  0  0  0  0  0
    0.2237   -1.6148   -3.8316 H   0  0  0  0  0  0  0  0  0  0  0  0
   -1.2140   -1.1503    2.2271 H   0  0  0  0  0  0  0  0  0  0  0  0
   -1.8063   -2.9726   -2.4239 H   0  0  0  0  0  0  0  0  0  0  0  0
   -1.5256   -0.3604   -3.3099 C   0  0  0  0  0  0  0  0  0  0  0  0
   -2.9620    0.0829    0.0453 C   0  0  0  0  0  0  0  0  0  0  0  0
    0.6964   -0.1986   -2.9424 H   0  0  0  0  0  0  0  0  0  0  0  0
    3.3115   -2.0093    2.1260 H   0  0  0  0  0  0  0  0  0  0  0  0
   -1.9044   -0.5902   -4.2513 H   0  0  0  0  0  0  0  0  0  0  0  0
   -0.4669    1.2075   -1.1476 H   0  0  0  0  0  0  0  0  0  0  0  0
    1.3852    1.6542    1.6845 C   0  0  0  0  0  0  0  0  0  0  0  0
    3.5776   -1.1841    2.7560 C   0  0  0  0  0  0  0  0  0  0  0  0
   -0.9027    0.8884    1.6604 C   0  0  0  0  0  0  0  0  0  0  0  0
    3.1566    0.0822    2.2086 N   0  0  0  0  0  0  0  0  0  0  0  0
    0.4848   -2.5942   -1.7199 H   0  0  0  0  0  0  0  0  0  0  0  0
    1.1487   -1.5988    2.5904 H   0  0  0  0  0  0  0  0  0  0  0  0
    4.1391    1.1345    2.1089 C   0  0  0  0  0  0  0  0  0  0  0  0
   -1.9357    2.2407   -1.2015 H   0  0  0  0  0  0  0  0  0  0  0  0
   -2.4826    1.5707   -3.4028 H   0  0  0  0  0  0  0  0  0  0  0  0
    4.1452    1.6101    1.1432 H   0  0  0  0  0  0  0  0  0  0  0  0
    1.8270    0.3633    2.0661 C   0  0  0  0  0  0  0  0  0  0  0  0
 10  6  1  0
 13  2  1  0
 13  8  1  0
 14 11  1  0
 15  1  2  0
 17 15  2  0
 19  7  1  0
 19 13  1  0
 19 16  1  0
 20  9  1  0
 22 14  1  0
 23  7  1  0
 23 11  1  0
 24  7  1  0
 25  2  1  0
 26 20  1  0
 27 19  1  0
 28  2  1  0
 28  7  1  0
 28 14  1  0
 29  3  1  0
 29 15  1  0
 29 23  2  3
 30  2  1  0
 32 28  1  0
 33 11  1  0
 34  6  2  0
 34 12  1  0
 35  5  1  0
 35 21  1  0
 35 31  1  0
 36  6  1  0
 36 15  1  0
 36 20  2  0
 37 35  1  0
 38 13  1  0
 39  9  1  0
 40  4  1  0
 40 18  1  0
 40 37  1  0
 41 11  1  0
 42 14  1  0
 43 40  1  0
 44  9  2  0
 44 34  1  0
 44 37  1  0
M  END
$$$$
