
     RDKit          3D

 44 45  0  0  0  0  0  0  0  0999 V2000
   -0.5817    1.9705   -2.9589 C   0  0  0  0  0  0  0  0  0  0  0  0
    1.1650    3.8196    0.6523 C   0  0  0  0  0  0  0  0  0  0  0  0
   -2.3557   -1.2914   -2.0498 H   0  0  0  0  0  0  0  0  0  0  0  0
    1.0485    1.6759    2.2816 H   0  0  0  0  0  0  0  0  0  0  0  0
    1.0252   -3.8341   -0.3779 C   0  0  0  0  0  0  0  0  0  0  0  0
    0.6142   -1.5572    1.3800 C   0  0  0  0  0  0  0  0  0  0  0  0
    1.6296   -1.8106    1.6562 H   0  0  0  0  0  0  0  0  0  0  0  0
    0.5383   -1.3858   -0.0535 C   0  0  0  0  0  0  0  0  0  0  0  0
   -0.4243   -4.6730    2.4406 H   0  0  0  0  0  0  0  0  0  0  0  0
   -0.5300    4.2489    1.9567 H   0  0  0  0  0  0  0  0  0  0  0  0
    0.1993   -3.9821    1.8901 C   0  0  0  0  0  0  0  0  0  0  0  0
    0.2441   -2.6468   -0.9007 C   0  0  0  0  0  0  0  0  0  0  0  0
   -2.8734   -0.1613   -4.1989 H   0  0  0  0  0  0  0  0  0  0  0  0
   -0.9433    1.7664    1.7851 O   0  0  0  0  0  0  0  0  0  0  0  0
    2.0073   -3.5409   -0.0208 H   0  0  0  0  0  0  0  0  0  0  0  0
    1.0239    4.2025    2.7289 H   0  0  0  0  0  0  0  0  0  0  0  0
    2.1026    3.3018    0.7346 H   0  0  0  0  0  0  0  0  0  0  0  0
    0.4518   -0.5870    1.8130 H   0  0  0  0  0  0  0  0  0  0  0  0
    1.3721   -0.8632   -0.4031 H   0  0  0  0  0  0  0  0  0  0  0  0
   -0.9098    1.0915    1.2078 H   0  0  0  0  0  0  0  0  0  0  0  0
   -1.5226    1.4316   -3.8727 C   0  0  0  0  0  0  0  0  0  0  0  0
   -1.7143    1.9678   -4.7990 H   0  0  0  0  0  0  0  0  0  0  0  0
   -0.2799    1.3285   -1.7862 C   0  0  0  0  0  0  0  0  0  0  0  0
    1.2155   -4.0577    2.2832 H   0  0  0  0  0  0  0  0  0  0  0  0
   -0.5353    3.4871   -0.6123 H   0  0  0  0  0  0  0  0  0  0  0  0
   -0.4309   -2.3407    3.0311 H   0  0  0  0  0  0  0  0  0  0  0  0
    1.2750    4.8313    0.3976 H   0  0  0  0  0  0  0  0  0  0  0  0
   -0.8629   -2.9308   -0.8937 H   0  0  0  0  0  0  0  0  0  0  0  0
   -0.9005    0.1112   -1.4916 C   0  0  0  0  0  0  0  0  0  0  0  0
    0.4003    3.7535    2.0061 C   0  0  0  0  0  0  0  0  0  0  0  0
    1.0962   -4.5809   -1.1487 H   0  0  0  0  0  0  0  0  0  0  0  0
    1.8002    1.3744   -0.4452 O   0  0  0  0  0  0  0  0  0  0  0  0
   -1.8468   -0.3911   -2.3155 C   0  0  0  0  0  0  0  0  0  0  0  0
   -1.2899   -2.4351    1.5135 H   0  0  0  0  0  0  0  0  0  0  0  0
   -0.3465   -2.5474    1.9762 C   0  0  0  0  0  0  0  0  0  0  0  0
    0.4451    3.1525   -0.3686 N   0  0  0  0  0  0  0  0  0  0  0  0
    0.7568    1.9098   -0.8169 C   0  0  0  0  0  0  0  0  0  0  0  0
    0.2461   -4.5376    0.6619 O   0  0  0  0  0  0  0  0  0  0  0  0
   -2.1252    0.2517   -3.5275 C   0  0  0  0  0  0  0  0  0  0  0  0
    0.1206    2.2938    2.4522 C   0  0  0  0  0  0  0  0  0  0  0  0
   -0.6592   -0.5245   -0.2615 O   0  0  0  0  0  0  0  0  0  0  0  0
   -0.0898    2.8924   -3.1453 H   0  0  0  0  0  0  0  0  0  0  0  0
    0.5584   -2.4151   -1.8952 H   0  0  0  0  0  0  0  0  0  0  0  0
   -0.1140    2.2317    3.4950 H   0  0  0  0  0  0  0  0  0  0  0  0
  7  6  1  0
  8  6  1  0
 11  9  1  0
 12  5  1  0
 12  8  1  0
 15  5  1  0
 17  2  1  0
 18  6  1  0
 19  8  1  0
 20 14  1  0
 21  1  2  0
 22 21  1  0
 23  1  1  0
 24 11  1  0
 27  2  1  0
 28 12  1  0
 29 23  2  0
 30  2  1  0
 30 10  1  0
 30 16  1  0
 31  5  1  0
 33  3  1  0
 33 29  1  0
 35  6  1  0
 35 11  1  0
 35 26  1  0
 35 34  1  0
 36  2  1  0
 36 25  1  0
 37 23  1  0
 37 32  2  0
 37 36  1  0
 38  5  1  0
 38 11  1  0
 39 13  1  0
 39 21  1  0
 39 33  2  0
 40  4  1  0
 40 14  1  0
 40 30  1  0
 41  8  1  0
 41 29  1  0
 42  1  1  0
 43 12  1  0
 44 40  1  0
M  END
$$$$
