
     RDKit          3D

 44 45  0  0  0  0  0  0  0  0999 V2000
   -2.0530    2.5231    0.0946 H   0  0  0  0  0  0  0  0  0  0  0  0
   -2.3356   -0.7511    1.5891 H   0  0  0  0  0  0  0  0  0  0  0  0
    2.1705   -2.7729   -1.7836 H   0  0  0  0  0  0  0  0  0  0  0  0
    3.8108   -0.8757    2.1374 H   0  0  0  0  0  0  0  0  0  0  0  0
   -3.1000    1.1159    0.2061 H   0  0  0  0  0  0  0  0  0  0  0  0
   -3.3551    2.2759   -1.9480 H   0  0  0  0  0  0  0  0  0  0  0  0
    1.1132    0.6309   -0.5713 H   0  0  0  0  0  0  0  0  0  0  0  0
    0.2350    1.2320   -0.7504 C   0  0  0  0  0  0  0  0  0  0  0  0
    1.1891    1.9404   -2.9036 C   0  0  0  0  0  0  0  0  0  0  0  0
   -0.9302   -1.0580    3.1768 C   0  0  0  0  0  0  0  0  0  0  0  0
   -0.0843   -0.5441    3.5994 H   0  0  0  0  0  0  0  0  0  0  0  0
   -1.1405   -3.7342    0.6426 H   0  0  0  0  0  0  0  0  0  0  0  0
    1.8425   -0.8027    2.3104 O   0  0  0  0  0  0  0  0  0  0  0  0
    1.6255   -2.6575   -0.8736 C   0  0  0  0  0  0  0  0  0  0  0  0
   -1.6568   -0.1423    2.2145 C   0  0  0  0  0  0  0  0  0  0  0  0
   -2.2294    0.5515    2.7672 H   0  0  0  0  0  0  0  0  0  0  0  0
   -2.5081    1.6491   -1.7621 C   0  0  0  0  0  0  0  0  0  0  0  0
   -0.2244   -3.2078    0.4619 C   0  0  0  0  0  0  0  0  0  0  0  0
    3.0400   -1.2944   -0.0470 H   0  0  0  0  0  0  0  0  0  0  0  0
    0.4732    2.2417   -0.3533 H   0  0  0  0  0  0  0  0  0  0  0  0
    0.1035    0.7499    1.7295 H   0  0  0  0  0  0  0  0  0  0  0  0
    1.4155    2.9210   -2.5737 H   0  0  0  0  0  0  0  0  0  0  0  0
    3.0957    0.5086    1.3658 H   0  0  0  0  0  0  0  0  0  0  0  0
    2.1002   -1.7952    0.1026 C   0  0  0  0  0  0  0  0  0  0  0  0
   -0.0214    1.3597   -2.2024 C   0  0  0  0  0  0  0  0  0  0  0  0
   -1.2718    2.2231   -2.4674 C   0  0  0  0  0  0  0  0  0  0  0  0
    2.0329    1.3269   -2.7417 H   0  0  0  0  0  0  0  0  0  0  0  0
   -1.0222    0.6885   -0.0700 C   0  0  0  0  0  0  0  0  0  0  0  0
   -0.7522    0.6310    1.3711 N   0  0  0  0  0  0  0  0  0  0  0  0
    3.0514   -0.1704    2.2266 C   0  0  0  0  0  0  0  0  0  0  0  0
    3.1407    0.4140    3.1137 H   0  0  0  0  0  0  0  0  0  0  0  0
   -2.7096    0.6683   -2.1706 H   0  0  0  0  0  0  0  0  0  0  0  0
   -1.5643   -1.3636    3.9446 H   0  0  0  0  0  0  0  0  0  0  0  0
   -0.5339   -2.2671    2.5964 O   0  0  0  0  0  0  0  0  0  0  0  0
   -1.4347    2.2792   -3.5449 H   0  0  0  0  0  0  0  0  0  0  0  0
   -1.0624    3.1869   -2.1274 H   0  0  0  0  0  0  0  0  0  0  0  0
    0.1018   -4.0077   -1.4504 H   0  0  0  0  0  0  0  0  0  0  0  0
    0.1950   -2.3316    1.4537 C   0  0  0  0  0  0  0  0  0  0  0  0
   -1.2152   -0.2998   -0.4743 H   0  0  0  0  0  0  0  0  0  0  0  0
   -2.2187    1.5407   -0.3039 C   0  0  0  0  0  0  0  0  0  0  0  0
   -0.1713    0.3554   -2.6148 H   0  0  0  0  0  0  0  0  0  0  0  0
    1.4011   -1.6206    1.2820 C   0  0  0  0  0  0  0  0  0  0  0  0
    0.4647   -3.3235   -0.6742 C   0  0  0  0  0  0  0  0  0  0  0  0
    0.9926    2.0065   -3.9775 H   0  0  0  0  0  0  0  0  0  0  0  0
  8  7  1  0
 11 10  1  0
 14  3  1  0
 15  2  1  0
 15 10  1  0
 16 15  1  0
 17  6  1  0
 18 12  1  0
 20  8  1  0
 22  9  1  0
 24 14  2  0
 24 19  1  0
 25  8  1  0
 25  9  1  0
 26 17  1  0
 26 25  1  0
 27  9  1  0
 28  8  1  0
 29 15  1  0
 29 21  1  0
 29 28  1  0
 30  4  1  0
 30 13  1  0
 30 23  1  0
 31 30  1  0
 32 17  1  0
 33 10  1  0
 34 10  1  0
 35 26  1  0
 36 26  1  0
 38 18  1  0
 38 34  1  0
 39 28  1  0
 40  1  1  0
 40  5  1  0
 40 17  1  0
 40 28  1  0
 41 25  1  0
 42 13  1  0
 42 24  1  0
 42 38  2  0
 43 14  1  0
 43 18  2  0
 43 37  1  0
 44  9  1  0
M  END
$$$$
