
     RDKit          3D

 44 46  0  0  0  0  0  0  0  0999 V2000
    2.0816    5.0729   -0.5471 H   0  0  0  0  0  0  0  0  0  0  0  0
    0.0403   -2.0620   -1.1345 C   0  0  0  0  0  0  0  0  0  0  0  0
   -3.3881   -1.2428   -0.4618 N   0  0  0  0  0  0  0  0  0  0  0  0
   -0.9731   -1.3514   -3.2338 C   0  0  0  0  0  0  0  0  0  0  0  0
   -0.1911    2.4997    0.3613 H   0  0  0  0  0  0  0  0  0  0  0  0
    1.8331    1.9677    0.7576 C   0  0  0  0  0  0  0  0  0  0  0  0
    0.1161   -1.8256   -2.5045 C   0  0  0  0  0  0  0  0  0  0  0  0
    0.6953   -0.3759    1.8080 C   0  0  0  0  0  0  0  0  0  0  0  0
    0.8502   -3.2324    0.3963 H   0  0  0  0  0  0  0  0  0  0  0  0
    4.0611    4.3134   -0.1946 H   0  0  0  0  0  0  0  0  0  0  0  0
   -4.7356    0.1336   -1.2393 H   0  0  0  0  0  0  0  0  0  0  0  0
    2.3561    3.1099    0.2283 N   0  0  0  0  0  0  0  0  0  0  0  0
    1.8637   -1.8386   -0.1405 H   0  0  0  0  0  0  0  0  0  0  0  0
    2.6340    0.9722    1.3736 C   0  0  0  0  0  0  0  0  0  0  0  0
   -0.9869   -2.2468    2.0642 C   0  0  0  0  0  0  0  0  0  0  0  0
    0.8841    3.8710   -1.0582 H   0  0  0  0  0  0  0  0  0  0  0  0
    2.0839   -0.1606    1.8694 C   0  0  0  0  0  0  0  0  0  0  0  0
   -1.1287   -1.7961   -0.4904 C   0  0  0  0  0  0  0  0  0  0  0  0
    1.7543   -3.2141   -1.1199 H   0  0  0  0  0  0  0  0  0  0  0  0
   -4.7300   -0.8189   -0.8237 C   0  0  0  0  0  0  0  0  0  0  0  0
   -3.6435   -1.5433    1.6365 H   0  0  0  0  0  0  0  0  0  0  0  0
    2.7092   -0.8819    2.3247 H   0  0  0  0  0  0  0  0  0  0  0  0
   -1.4129   -3.2655    2.9287 S   0  0  0  0  0  0  0  0  0  0  0  0
    1.0540   -2.0273   -3.0356 H   0  0  0  0  0  0  0  0  0  0  0  0
    4.3669    2.5692   -0.1450 H   0  0  0  0  0  0  0  0  0  0  0  0
    0.1496   -1.5442    2.3600 N   0  0  0  0  0  0  0  0  0  0  0  0
    0.6876   -1.9453    3.1356 H   0  0  0  0  0  0  0  0  0  0  0  0
    0.8573    4.5506    0.5679 H   0  0  0  0  0  0  0  0  0  0  0  0
   -5.0977   -1.5041   -1.5056 H   0  0  0  0  0  0  0  0  0  0  0  0
   -5.3339   -0.8488    0.0411 H   0  0  0  0  0  0  0  0  0  0  0  0
   -2.1957   -1.1151   -2.6095 C   0  0  0  0  0  0  0  0  0  0  0  0
    1.5257    4.2081   -0.2095 C   0  0  0  0  0  0  0  0  0  0  0  0
    0.4892    1.7896    0.7741 C   0  0  0  0  0  0  0  0  0  0  0  0
    4.1316    3.4616    1.3086 H   0  0  0  0  0  0  0  0  0  0  0  0
    3.7983    3.3688    0.3092 C   0  0  0  0  0  0  0  0  0  0  0  0
   -0.1067    0.6339    1.2449 C   0  0  0  0  0  0  0  0  0  0  0  0
   -1.6145   -1.8856    0.8489 C   0  0  0  0  0  0  0  0  0  0  0  0
   -3.0740   -0.7701   -3.1929 H   0  0  0  0  0  0  0  0  0  0  0  0
   -0.8634   -1.1782   -4.3293 H   0  0  0  0  0  0  0  0  0  0  0  0
   -2.9910   -1.5528    0.7890 C   0  0  0  0  0  0  0  0  0  0  0  0
    3.7115    1.1276    1.4169 H   0  0  0  0  0  0  0  0  0  0  0  0
   -1.1361    0.5635    1.2270 H   0  0  0  0  0  0  0  0  0  0  0  0
    1.1768   -2.6485   -0.4732 C   0  0  0  0  0  0  0  0  0  0  0  0
   -2.3086   -1.3375   -1.3230 C   0  0  0  0  0  0  0  0  0  0  0  0
  7  2  2  0
  7  4  1  0
 12  6  1  0
 14  6  2  0
 17  8  2  0
 17 14  1  0
 18  2  1  0
 20  3  1  0
 20 11  1  0
 22 17  1  0
 23 15  2  0
 24  7  1  0
 26  8  1  0
 26 15  1  0
 27 26  1  0
 29 20  1  0
 30 20  1  0
 31  4  2  0
 32  1  1  0
 32 12  1  0
 32 16  1  0
 32 28  1  0
 33  5  1  0
 33  6  1  0
 35 10  1  0
 35 12  1  0
 35 25  1  0
 35 34  1  0
 36  8  1  0
 36 33  2  0
 37 15  1  0
 37 18  1  0
 38 31  1  0
 39  4  1  0
 40  3  1  0
 40 21  1  0
 40 37  2  0
 41 14  1  0
 42 36  1  0
 43  2  1  0
 43  9  1  0
 43 13  1  0
 43 19  1  0
 44  3  1  0
 44 18  2  0
 44 31  1  0
M  END
$$$$
