
     RDKit          3D

 42 45  0  0  0  0  0  0  0  0999 V2000
    0.4538    1.7788    1.9922 N   0  0  0  0  0  0  0  0  0  0  0  0
    1.9318    2.3442   -3.0635 C   0  0  0  0  0  0  0  0  0  0  0  0
   -1.8297   -2.2021   -2.6569 C   0  0  0  0  0  0  0  0  0  0  0  0
   -2.0378    0.2553    5.0237 C   0  0  0  0  0  0  0  0  0  0  0  0
   -2.1005   -2.0975    1.6061 H   0  0  0  0  0  0  0  0  0  0  0  0
   -1.6968   -2.0242    0.7693 N   0  0  0  0  0  0  0  0  0  0  0  0
    0.2623    0.9241    1.1093 C   0  0  0  0  0  0  0  0  0  0  0  0
   -2.3737   -1.6247   -1.9242 H   0  0  0  0  0  0  0  0  0  0  0  0
   -1.3106    1.4433    5.3043 C   0  0  0  0  0  0  0  0  0  0  0  0
   -2.3323   -3.1037   -2.9220 H   0  0  0  0  0  0  0  0  0  0  0  0
   -2.0315   -2.4721    0.0566 H   0  0  0  0  0  0  0  0  0  0  0  0
    0.6101    0.6676   -0.1577 N   0  0  0  0  0  0  0  0  0  0  0  0
    0.7608   -0.7877   -2.2688 H   0  0  0  0  0  0  0  0  0  0  0  0
   -0.3483    1.3661    3.1537 C   0  0  0  0  0  0  0  0  0  0  0  0
    1.1040    1.5466   -2.2933 C   0  0  0  0  0  0  0  0  0  0  0  0
    0.2394    1.1390   -2.7651 H   0  0  0  0  0  0  0  0  0  0  0  0
    1.3880    1.4596   -0.9397 C   0  0  0  0  0  0  0  0  0  0  0  0
   -1.4024    1.9290    6.2347 H   0  0  0  0  0  0  0  0  0  0  0  0
    0.5895   -2.5685   -3.9628 H   0  0  0  0  0  0  0  0  0  0  0  0
   -2.6747   -0.1488    5.7732 H   0  0  0  0  0  0  0  0  0  0  0  0
   -0.0061   -4.1596   -3.4157 H   0  0  0  0  0  0  0  0  0  0  0  0
   -2.4843   -1.2784    3.5941 H   0  0  0  0  0  0  0  0  0  0  0  0
   -0.8533   -0.9496    0.6080 C   0  0  0  0  0  0  0  0  0  0  0  0
    0.1580    2.8648    4.5419 H   0  0  0  0  0  0  0  0  0  0  0  0
    3.6631    3.6104   -3.1341 H   0  0  0  0  0  0  0  0  0  0  0  0
   -0.4191    1.9949    4.3366 C   0  0  0  0  0  0  0  0  0  0  0  0
   -1.9364   -0.3702    3.8292 C   0  0  0  0  0  0  0  0  0  0  0  0
   -1.0708    0.2154    2.8916 C   0  0  0  0  0  0  0  0  0  0  0  0
    2.4400    2.1445   -0.3321 C   0  0  0  0  0  0  0  0  0  0  0  0
   -0.0778   -0.5957   -0.4389 C   0  0  0  0  0  0  0  0  0  0  0  0
    3.2624    2.9249   -1.1734 C   0  0  0  0  0  0  0  0  0  0  0  0
    1.4201   -3.3824   -2.7133 H   0  0  0  0  0  0  0  0  0  0  0  0
    1.7336    2.4297   -4.1257 H   0  0  0  0  0  0  0  0  0  0  0  0
    3.0419    3.0404   -2.5575 C   0  0  0  0  0  0  0  0  0  0  0  0
    0.4410   -3.2128   -3.0833 C   0  0  0  0  0  0  0  0  0  0  0  0
    4.0511    3.4317   -0.7496 H   0  0  0  0  0  0  0  0  0  0  0  0
    2.6337    2.1071    0.6726 H   0  0  0  0  0  0  0  0  0  0  0  0
   -0.4270   -2.4939   -2.0749 C   0  0  0  0  0  0  0  0  0  0  0  0
   -0.4757   -3.1337   -1.2082 H   0  0  0  0  0  0  0  0  0  0  0  0
   -0.7563   -0.1451    1.6103 N   0  0  0  0  0  0  0  0  0  0  0  0
    0.1566   -1.2772   -1.5994 N   0  0  0  0  0  0  0  0  0  0  0  0
   -1.6960   -1.5894   -3.5475 H   0  0  0  0  0  0  0  0  0  0  0  0
  6  5  1  0
  7  1  2  0
  8  3  1  0
  9  4  2  0
 10  3  1  0
 11  6  1  0
 12  7  1  0
 14  1  1  0
 15  2  2  0
 16 15  1  0
 17 12  1  0
 17 15  1  0
 18  9  1  0
 20  4  1  0
 23  6  1  0
 26  9  1  0
 26 14  2  0
 26 24  1  0
 27  4  1  0
 27 22  1  0
 28 14  1  0
 28 27  2  0
 29 17  2  0
 30 12  1  0
 30 23  2  0
 31 29  1  0
 33  2  1  0
 34  2  1  0
 34 25  1  0
 34 31  2  0
 35 19  1  0
 35 21  1  0
 35 32  1  0
 36 31  1  0
 37 29  1  0
 38  3  1  0
 38 35  1  0
 39 38  1  0
 40  7  1  0
 40 23  1  0
 40 28  1  0
 41 13  1  0
 41 30  1  0
 41 38  1  0
 42  3  1  0
M  END
$$$$
