
     RDKit          3D

 44 47  0  0  0  0  0  0  0  0999 V2000
   -1.3375   -0.1817   -0.6086 C   0  0  0  0  0  0  0  0  0  0  0  0
    3.8204    2.6448    0.2933 H   0  0  0  0  0  0  0  0  0  0  0  0
   -1.5808    1.7067    1.0118 C   0  0  0  0  0  0  0  0  0  0  0  0
   -2.2540    1.9351   -1.3306 C   0  0  0  0  0  0  0  0  0  0  0  0
   -1.9053    3.0088    1.2042 C   0  0  0  0  0  0  0  0  0  0  0  0
    2.5413   -2.2685   -0.5591 C   0  0  0  0  0  0  0  0  0  0  0  0
   -0.8383   -2.4230   -0.5884 N   0  0  0  0  0  0  0  0  0  0  0  0
    1.9189   -2.7481    0.5481 C   0  0  0  0  0  0  0  0  0  0  0  0
    0.9797    0.1872    1.8944 H   0  0  0  0  0  0  0  0  0  0  0  0
    1.3253   -1.9014    1.4390 C   0  0  0  0  0  0  0  0  0  0  0  0
   -1.7387    3.4242    2.1972 H   0  0  0  0  0  0  0  0  0  0  0  0
   -0.3200   -2.6800   -2.5713 H   0  0  0  0  0  0  0  0  0  0  0  0
   -0.9803   -0.6182   -1.8886 C   0  0  0  0  0  0  0  0  0  0  0  0
   -3.0301    3.7983   -1.8404 H   0  0  0  0  0  0  0  0  0  0  0  0
    1.9215    1.7201   -0.3122 S   0  0  0  0  0  0  0  0  0  0  0  0
    2.5448   -0.9109   -0.8511 C   0  0  0  0  0  0  0  0  0  0  0  0
    2.9933   -2.9476   -1.2579 H   0  0  0  0  0  0  0  0  0  0  0  0
    3.7095    2.5301   -1.2921 H   0  0  0  0  0  0  0  0  0  0  0  0
   -2.6313    3.2403   -1.0835 C   0  0  0  0  0  0  0  0  0  0  0  0
    3.4958    2.1274   -0.4420 N   0  0  0  0  0  0  0  0  0  0  0  0
   -0.9058   -3.5247    1.3825 H   0  0  0  0  0  0  0  0  0  0  0  0
   -0.9482    0.2624   -3.0376 C   0  0  0  0  0  0  0  0  0  0  0  0
    0.4757   -1.6684    3.3543 H   0  0  0  0  0  0  0  0  0  0  0  0
    1.0020   -3.2920    2.9828 H   0  0  0  0  0  0  0  0  0  0  0  0
   -1.5007   -3.0623    2.9497 H   0  0  0  0  0  0  0  0  0  0  0  0
    1.3570    2.4272    0.8315 O   0  0  0  0  0  0  0  0  0  0  0  0
   -1.2607   -1.3138    0.1827 N   0  0  0  0  0  0  0  0  0  0  0  0
   -2.4444    3.7761    0.1807 C   0  0  0  0  0  0  0  0  0  0  0  0
    3.0099   -0.5130   -1.7332 H   0  0  0  0  0  0  0  0  0  0  0  0
   -2.7234    4.7975    0.3439 H   0  0  0  0  0  0  0  0  0  0  0  0
    1.3882   -0.5281    1.2096 C   0  0  0  0  0  0  0  0  0  0  0  0
    1.2564    1.8547   -1.5984 O   0  0  0  0  0  0  0  0  0  0  0  0
   -2.2320   -0.7510    2.1955 O   0  0  0  0  0  0  0  0  0  0  0  0
   -1.4952   -1.5081    1.5410 C   0  0  0  0  0  0  0  0  0  0  0  0
   -0.6729   -1.9806   -1.7930 C   0  0  0  0  0  0  0  0  0  0  0  0
    0.5466   -2.4130    2.5712 C   0  0  0  0  0  0  0  0  0  0  0  0
   -0.9653   -0.1530   -3.9624 H   0  0  0  0  0  0  0  0  0  0  0  0
   -1.1994    1.1071    1.7576 H   0  0  0  0  0  0  0  0  0  0  0  0
    1.9778   -0.0274    0.0600 C   0  0  0  0  0  0  0  0  0  0  0  0
   -1.7097    1.0828   -0.2872 C   0  0  0  0  0  0  0  0  0  0  0  0
    1.8654   -3.7818    0.7243 H   0  0  0  0  0  0  0  0  0  0  0  0
   -0.0819    1.0097   -3.0069 H   0  0  0  0  0  0  0  0  0  0  0  0
   -2.4717    1.3063   -2.9213 S   0  0  0  0  0  0  0  0  0  0  0  0
   -0.9019   -2.7504    2.1106 C   0  0  0  0  0  0  0  0  0  0  0  0
  5  3  2  0
  8  6  2  0
 10  8  1  0
 11  5  1  0
 13  1  2  0
 16  6  1  0
 17  6  1  0
 19  4  1  0
 19 14  1  0
 20  2  1  0
 20 15  1  0
 20 18  1  0
 22 13  1  0
 26 15  2  0
 27  1  1  0
 27  7  1  0
 28  5  1  0
 28 19  2  0
 29 16  1  0
 30 28  1  0
 31  9  1  0
 31 10  2  0
 32 15  2  0
 34 27  1  0
 34 33  2  0
 35  7  2  0
 35 12  1  0
 35 13  1  0
 36 10  1  0
 36 23  1  0
 36 24  1  0
 37 22  1  0
 38  3  1  0
 39 15  1  0
 39 16  2  0
 39 31  1  0
 40  1  1  0
 40  3  1  0
 40  4  2  0
 41  8  1  0
 42 22  1  0
 43  4  1  0
 43 22  1  0
 44 21  1  0
 44 25  1  0
 44 34  1  0
 44 36  1  0
M  END
$$$$
