
     RDKit          3D

 44 45  0  0  0  0  0  0  0  0999 V2000
   -2.8459    0.3976    0.7081 C   0  0  0  0  0  0  0  0  0  0  0  0
   -2.9114   -3.3589   -0.6062 Cl  0  0  0  0  0  0  0  0  0  0  0  0
   -2.3870    3.3101    3.1736 H   0  0  0  0  0  0  0  0  0  0  0  0
   -1.9560    2.5277    2.5666 C   0  0  0  0  0  0  0  0  0  0  0  0
    0.4293   -1.2114    0.3341 C   0  0  0  0  0  0  0  0  0  0  0  0
    5.0022    1.1211   -0.9055 H   0  0  0  0  0  0  0  0  0  0  0  0
    1.7581    1.5792    0.1858 O   0  0  0  0  0  0  0  0  0  0  0  0
   -2.3523   -1.0918    3.6165 H   0  0  0  0  0  0  0  0  0  0  0  0
    3.6732   -0.5522   -1.1091 C   0  0  0  0  0  0  0  0  0  0  0  0
    0.1444    1.3335    2.0723 N   0  0  0  0  0  0  0  0  0  0  0  0
   -2.1208    2.7269    1.4784 H   0  0  0  0  0  0  0  0  0  0  0  0
   -2.5614   -3.0821    2.1639 H   0  0  0  0  0  0  0  0  0  0  0  0
   -2.6369    0.2658    2.0393 C   0  0  0  0  0  0  0  0  0  0  0  0
   -2.9524   -0.7122   -0.1107 C   0  0  0  0  0  0  0  0  0  0  0  0
   -0.0881   -0.0592   -0.3052 O   0  0  0  0  0  0  0  0  0  0  0  0
   -0.4876    2.2627   -0.1692 O   0  0  0  0  0  0  0  0  0  0  0  0
    0.7101   -1.1491    1.5667 O   0  0  0  0  0  0  0  0  0  0  0  0
    3.7423    2.4001   -2.6577 H   0  0  0  0  0  0  0  0  0  0  0  0
   -0.2646    2.3162    3.8078 H   0  0  0  0  0  0  0  0  0  0  0  0
    2.5655   -1.1054   -1.7114 C   0  0  0  0  0  0  0  0  0  0  0  0
   -3.1884   -0.6032   -1.1475 H   0  0  0  0  0  0  0  0  0  0  0  0
    2.0415   -2.6993   -1.1829 S   0  0  0  0  0  0  0  0  0  0  0  0
    0.6551   -0.6371   -4.4644 H   0  0  0  0  0  0  0  0  0  0  0  0
    0.1379   -3.2505    0.0761 H   0  0  0  0  0  0  0  0  0  0  0  0
    0.0121    3.3374    2.4330 H   0  0  0  0  0  0  0  0  0  0  0  0
   -2.5691    1.2764    2.9004 O   0  0  0  0  0  0  0  0  0  0  0  0
   -2.8303   -1.9663    0.4446 C   0  0  0  0  0  0  0  0  0  0  0  0
   -2.6367   -2.1108    1.7438 C   0  0  0  0  0  0  0  0  0  0  0  0
   -2.5185   -0.9739    2.5517 C   0  0  0  0  0  0  0  0  0  0  0  0
    0.4123   -2.4264   -0.4926 C   0  0  0  0  0  0  0  0  0  0  0  0
    3.4247    1.3848   -2.3842 C   0  0  0  0  0  0  0  0  0  0  0  0
   -2.9222    1.3475    0.2704 H   0  0  0  0  0  0  0  0  0  0  0  0
    0.3704    1.3473    0.4465 S   0  0  0  0  0  0  0  0  0  0  0  0
   -0.2078   -0.7185   -2.9701 H   0  0  0  0  0  0  0  0  0  0  0  0
    1.8415    1.3931   -3.8050 H   0  0  0  0  0  0  0  0  0  0  0  0
    0.3292    0.4912    2.4056 H   0  0  0  0  0  0  0  0  0  0  0  0
    1.8586   -0.4200   -2.7128 C   0  0  0  0  0  0  0  0  0  0  0  0
    2.3129    0.8439   -3.0175 C   0  0  0  0  0  0  0  0  0  0  0  0
    4.2138   -1.1720   -0.3641 H   0  0  0  0  0  0  0  0  0  0  0  0
   -0.2813   -2.3047   -1.3282 H   0  0  0  0  0  0  0  0  0  0  0  0
    0.7765   -2.0492   -3.4614 H   0  0  0  0  0  0  0  0  0  0  0  0
   -0.4363    2.4004    2.7623 C   0  0  0  0  0  0  0  0  0  0  0  0
    4.0572    0.6412   -1.4428 C   0  0  0  0  0  0  0  0  0  0  0  0
    0.6864   -1.0498   -3.3991 C   0  0  0  0  0  0  0  0  0  0  0  0
  4  3  1  0
 11  4  1  0
 13  1  2  0
 14  1  1  0
 15  5  1  0
 17  5  2  0
 20  9  2  0
 21 14  1  0
 22 20  1  0
 26  4  1  0
 26 13  1  0
 27  2  1  0
 27 14  2  0
 28 12  1  0
 28 27  1  0
 29  8  1  0
 29 13  1  0
 29 28  2  0
 30  5  1  0
 30 22  1  0
 30 24  1  0
 31 18  1  0
 32  1  1  0
 33  7  2  0
 33 10  1  0
 33 15  1  0
 33 16  2  0
 36 10  1  0
 37 20  1  0
 38 31  1  0
 38 35  1  0
 38 37  2  0
 39  9  1  0
 40 30  1  0
 42  4  1  0
 42 10  1  0
 42 19  1  0
 42 25  1  0
 43  6  1  0
 43  9  1  0
 43 31  2  0
 44 23  1  0
 44 34  1  0
 44 37  1  0
 44 41  1  0
M  END
$$$$
