
     RDKit          3D

 41 42  0  0  0  0  0  0  0  0999 V2000
   -0.6951    2.8870    2.3394 H   0  0  0  0  0  0  0  0  0  0  0  0
    2.8724   -1.4117   -0.0503 H   0  0  0  0  0  0  0  0  0  0  0  0
   -2.9443   -0.3789   -1.3759 N   0  0  0  0  0  0  0  0  0  0  0  0
    1.6095    1.8158   -2.6513 C   0  0  0  0  0  0  0  0  0  0  0  0
    1.5236   -0.4412   -1.4592 C   0  0  0  0  0  0  0  0  0  0  0  0
   -3.8662   -0.4855   -1.0015 H   0  0  0  0  0  0  0  0  0  0  0  0
    0.4099    2.3310    0.9516 H   0  0  0  0  0  0  0  0  0  0  0  0
   -2.5225   -1.1180   -1.2298 H   0  0  0  0  0  0  0  0  0  0  0  0
   -1.3432    2.0197    0.9078 H   0  0  0  0  0  0  0  0  0  0  0  0
    1.1588   -3.0396   -1.0991 H   0  0  0  0  0  0  0  0  0  0  0  0
   -1.4180   -2.7148   -0.6161 O   0  0  0  0  0  0  0  0  0  0  0  0
   -0.9225    2.4147   -1.9772 C   0  0  0  0  0  0  0  0  0  0  0  0
   -0.4657    2.0527    1.5631 C   0  0  0  0  0  0  0  0  0  0  0  0
    0.5609    0.8734    2.9876 H   0  0  0  0  0  0  0  0  0  0  0  0
    1.4504   -0.4663    1.0428 N   0  0  0  0  0  0  0  0  0  0  0  0
    0.9837   -2.4380   -0.1388 C   0  0  0  0  0  0  0  0  0  0  0  0
   -0.2561    0.7393    2.2102 C   0  0  0  0  0  0  0  0  0  0  0  0
   -2.0402    3.1209   -1.6622 N   0  0  0  0  0  0  0  0  0  0  0  0
   -0.8196   -1.0181    0.7184 N   0  0  0  0  0  0  0  0  0  0  0  0
    0.7052   -4.2057    0.9869 H   0  0  0  0  0  0  0  0  0  0  0  0
    1.2545   -2.9698    1.9431 H   0  0  0  0  0  0  0  0  0  0  0  0
   -2.3688    0.7700   -1.4915 C   0  0  0  0  0  0  0  0  0  0  0  0
    2.4773    2.2232   -3.0636 H   0  0  0  0  0  0  0  0  0  0  0  0
    0.5262    3.2912   -2.3476 S   0  0  0  0  0  0  0  0  0  0  0  0
   -1.6811    1.0632    3.8184 H   0  0  0  0  0  0  0  0  0  0  0  0
    1.8035   -1.1945   -0.1343 C   0  0  0  0  0  0  0  0  0  0  0  0
    0.0669   -0.2510    1.2610 C   0  0  0  0  0  0  0  0  0  0  0  0
    1.9093    0.9913   -1.4182 C   0  0  0  0  0  0  0  0  0  0  0  0
   -1.1236    1.0550   -1.8796 N   0  0  0  0  0  0  0  0  0  0  0  0
   -0.4733   -2.0806   -0.0639 C   0  0  0  0  0  0  0  0  0  0  0  0
   -2.3220    0.2205    2.4162 H   0  0  0  0  0  0  0  0  0  0  0  0
    0.4612   -0.4252   -1.6656 H   0  0  0  0  0  0  0  0  0  0  0  0
    2.5205    1.5096   -0.5237 O   0  0  0  0  0  0  0  0  0  0  0  0
    2.0617    0.3354    1.2205 H   0  0  0  0  0  0  0  0  0  0  0  0
   -3.2323    2.1230   -1.2706 S   0  0  0  0  0  0  0  0  0  0  0  0
   -1.4446    0.3359    3.0574 C   0  0  0  0  0  0  0  0  0  0  0  0
    2.3399   -3.7185    0.8943 H   0  0  0  0  0  0  0  0  0  0  0  0
    2.0057   -0.9346   -2.3158 H   0  0  0  0  0  0  0  0  0  0  0  0
    1.3568   -3.4130    1.0067 C   0  0  0  0  0  0  0  0  0  0  0  0
    1.1730    1.1914   -3.4449 H   0  0  0  0  0  0  0  0  0  0  0  0
   -1.2918   -0.6595    3.5555 H   0  0  0  0  0  0  0  0  0  0  0  0
  6  3  1  0
  8  3  1  0
 13  1  1  0
 13  7  1  0
 13  9  1  0
 16 10  1  0
 17 13  1  0
 17 14  1  0
 18 12  2  0
 22  3  1  0
 23  4  1  0
 24  4  1  0
 24 12  1  0
 26  2  1  0
 26  5  1  0
 26 15  1  0
 26 16  1  0
 27 15  1  0
 27 17  1  0
 27 19  2  0
 28  4  1  0
 28  5  1  0
 29 12  1  0
 29 22  2  0
 30 11  2  0
 30 16  1  0
 30 19  1  0
 32  5  1  0
 33 28  2  0
 34 15  1  0
 35 18  1  0
 35 22  1  0
 36 17  1  0
 36 25  1  0
 36 31  1  0
 38  5  1  0
 39 16  1  0
 39 20  1  0
 39 21  1  0
 39 37  1  0
 40  4  1  0
 41 36  1  0
M  END
$$$$
