
     RDKit          3D

 41 44  0  0  0  0  0  0  0  0999 V2000
    2.3359   -0.0514    2.6833 C   0  0  0  0  0  0  0  0  0  0  0  0
    4.4674    0.0165   -1.6456 C   0  0  0  0  0  0  0  0  0  0  0  0
    4.6299    0.8158   -0.9007 H   0  0  0  0  0  0  0  0  0  0  0  0
   -6.4471    0.0691    2.4993 C   0  0  0  0  0  0  0  0  0  0  0  0
    3.0188   -0.0660   -1.8956 N   0  0  0  0  0  0  0  0  0  0  0  0
    2.0178   -0.8930    3.2895 H   0  0  0  0  0  0  0  0  0  0  0  0
   -7.5676    0.1078    2.7231 H   0  0  0  0  0  0  0  0  0  0  0  0
   -5.9850    0.0775    1.2588 C   0  0  0  0  0  0  0  0  0  0  0  0
   -6.0916    0.0870    4.6338 H   0  0  0  0  0  0  0  0  0  0  0  0
   -4.0933    0.0418   -0.8761 H   0  0  0  0  0  0  0  0  0  0  0  0
    0.3464   -0.0235    1.1599 C   0  0  0  0  0  0  0  0  0  0  0  0
    4.3944   -1.4358   -3.9949 H   0  0  0  0  0  0  0  0  0  0  0  0
    0.7639   -0.0335   -1.1799 C   0  0  0  0  0  0  0  0  0  0  0  0
    2.0517   -0.9254   -3.6115 H   0  0  0  0  0  0  0  0  0  0  0  0
   -6.6368    0.0747    0.3839 H   0  0  0  0  0  0  0  0  0  0  0  0
   -4.5837    0.0527    1.1458 C   0  0  0  0  0  0  0  0  0  0  0  0
    4.7753   -0.9407   -1.2015 H   0  0  0  0  0  0  0  0  0  0  0  0
    2.0929   -0.0545   -0.8695 C   0  0  0  0  0  0  0  0  0  0  0  0
    6.1157   -0.0228   -3.0263 H   0  0  0  0  0  0  0  0  0  0  0  0
    2.2976    0.8640   -3.6664 H   0  0  0  0  0  0  0  0  0  0  0  0
    4.1684   -0.3459   -3.9302 C   0  0  0  0  0  0  0  0  0  0  0  0
    0.3943   -0.0420   -2.1201 H   0  0  0  0  0  0  0  0  0  0  0  0
    2.0588    0.7792    3.2932 H   0  0  0  0  0  0  0  0  0  0  0  0
    2.6839   -0.0383    0.3027 N   0  0  0  0  0  0  0  0  0  0  0  0
   -1.7176    0.0025   -1.3708 H   0  0  0  0  0  0  0  0  0  0  0  0
    4.2597    0.0591   -5.0038 H   0  0  0  0  0  0  0  0  0  0  0  0
   -1.4886   -0.0000   -0.4441 N   0  0  0  0  0  0  0  0  0  0  0  0
   -0.0981   -0.0234   -0.1233 C   0  0  0  0  0  0  0  0  0  0  0  0
   -3.7536    0.0421    2.1984 C   0  0  0  0  0  0  0  0  0  0  0  0
    5.0941    1.4306   -3.1720 H   0  0  0  0  0  0  0  0  0  0  0  0
    5.0549    0.3517   -2.9614 C   0  0  0  0  0  0  0  0  0  0  0  0
    2.7921   -0.1161   -3.3155 C   0  0  0  0  0  0  0  0  0  0  0  0
   -4.2781    0.0513    3.4652 C   0  0  0  0  0  0  0  0  0  0  0  0
   -3.5656    0.0469    4.3342 H   0  0  0  0  0  0  0  0  0  0  0  0
    3.4202   -0.0846    2.6649 H   0  0  0  0  0  0  0  0  0  0  0  0
   -3.8095    0.0418    0.0181 N   0  0  0  0  0  0  0  0  0  0  0  0
   -2.5026    0.0258    1.7905 N   0  0  0  0  0  0  0  0  0  0  0  0
   -5.6043    0.0981    3.5903 C   0  0  0  0  0  0  0  0  0  0  0  0
   -0.2616   -0.0156    2.0851 H   0  0  0  0  0  0  0  0  0  0  0  0
    1.7146   -0.0461    1.3440 C   0  0  0  0  0  0  0  0  0  0  0  0
   -2.4640    0.0224    0.4449 C   0  0  0  0  0  0  0  0  0  0  0  0
  3  2  1  0
  5  2  1  0
  6  1  1  0
  7  4  1  0
  8  4  2  0
 15  8  1  0
 16  8  1  0
 17  2  1  0
 18  5  1  0
 18 13  2  0
 21 12  1  0
 22 13  1  0
 23  1  1  0
 24 18  1  0
 26 21  1  0
 27 25  1  0
 28 11  2  0
 28 13  1  0
 28 27  1  0
 29 16  2  0
 31  2  1  0
 31 19  1  0
 31 21  1  0
 31 30  1  0
 32  5  1  0
 32 14  1  0
 32 20  1  0
 32 21  1  0
 33 29  1  0
 34 33  1  0
 35  1  1  0
 36 10  1  0
 36 16  1  0
 37 29  1  0
 38  4  1  0
 38  9  1  0
 38 33  2  0
 39 11  1  0
 40  1  1  0
 40 11  1  0
 40 24  2  0
 41 27  1  0
 41 36  1  0
 41 37  2  0
M  END
$$$$
