
     RDKit          3D

 42 42  0  0  0  0  0  0  0  0999 V2000
    1.1576   -3.3257    1.1199 C   0  0  0  0  0  0  0  0  0  0  0  0
   -0.4379   -1.2456   -0.7982 H   0  0  0  0  0  0  0  0  0  0  0  0
    0.2335   -1.4021   -0.1126 N   0  0  0  0  0  0  0  0  0  0  0  0
    1.8177   -2.6833    1.6914 H   0  0  0  0  0  0  0  0  0  0  0  0
    2.9425   -0.9089   -1.6795 F   0  0  0  0  0  0  0  0  0  0  0  0
   -2.4624    2.9770    1.8415 H   0  0  0  0  0  0  0  0  0  0  0  0
    2.8752    0.3204   -1.2626 C   0  0  0  0  0  0  0  0  0  0  0  0
    0.8372    3.7830    0.2287 H   0  0  0  0  0  0  0  0  0  0  0  0
   -0.1313   -1.3669    2.6207 H   0  0  0  0  0  0  0  0  0  0  0  0
   -1.3475   -4.2696    0.5891 H   0  0  0  0  0  0  0  0  0  0  0  0
    3.7123    0.4748   -0.3038 F   0  0  0  0  0  0  0  0  0  0  0  0
    0.4851    0.6833   -2.0245 C   0  0  0  0  0  0  0  0  0  0  0  0
   -1.4271    4.3097    1.3022 H   0  0  0  0  0  0  0  0  0  0  0  0
   -1.7921   -0.1044   -1.4587 N   0  0  0  0  0  0  0  0  0  0  0  0
   -2.9150    1.6380   -1.9996 N   0  0  0  0  0  0  0  0  0  0  0  0
   -1.0826   -3.4318   -0.0033 C   0  0  0  0  0  0  0  0  0  0  0  0
   -1.7861    3.3410    1.0723 C   0  0  0  0  0  0  0  0  0  0  0  0
    1.6855   -0.3213    1.3490 O   0  0  0  0  0  0  0  0  0  0  0  0
   -0.9719    1.4249    0.7530 H   0  0  0  0  0  0  0  0  0  0  0  0
   -0.8038   -2.0080    2.0502 C   0  0  0  0  0  0  0  0  0  0  0  0
   -2.2791    3.4108    0.1247 H   0  0  0  0  0  0  0  0  0  0  0  0
   -1.6774    1.8814   -2.2559 N   0  0  0  0  0  0  0  0  0  0  0  0
    0.8468    1.4809   -2.6522 H   0  0  0  0  0  0  0  0  0  0  0  0
   -0.6147   -3.7930   -0.8838 H   0  0  0  0  0  0  0  0  0  0  0  0
   -1.7250   -1.4421    1.7748 H   0  0  0  0  0  0  0  0  0  0  0  0
   -1.0848   -2.8726    2.6756 H   0  0  0  0  0  0  0  0  0  0  0  0
   -3.0170    0.3796   -1.4967 N   0  0  0  0  0  0  0  0  0  0  0  0
    1.6391   -3.6324    0.2355 H   0  0  0  0  0  0  0  0  0  0  0  0
   -0.0893    3.0154   -0.9853 H   0  0  0  0  0  0  0  0  0  0  0  0
   -0.1537    2.2788    1.9048 H   0  0  0  0  0  0  0  0  0  0  0  0
    1.4105    0.6817   -0.7908 C   0  0  0  0  0  0  0  0  0  0  0  0
    1.5222    1.9871   -0.1612 N   0  0  0  0  0  0  0  0  0  0  0  0
   -0.1159   -2.5257    0.8021 C   0  0  0  0  0  0  0  0  0  0  0  0
   -1.9755   -2.9107   -0.2512 H   0  0  0  0  0  0  0  0  0  0  0  0
    1.0907   -0.3958    0.2610 C   0  0  0  0  0  0  0  0  0  0  0  0
   -0.9423    0.8041   -1.9210 N   0  0  0  0  0  0  0  0  0  0  0  0
    1.9757    1.8345    0.7365 H   0  0  0  0  0  0  0  0  0  0  0  0
    3.2518    1.0745   -2.1999 F   0  0  0  0  0  0  0  0  0  0  0  0
   -0.6215    2.3917    0.9821 C   0  0  0  0  0  0  0  0  0  0  0  0
    0.3843    2.9113   -0.0714 C   0  0  0  0  0  0  0  0  0  0  0  0
    0.6946   -0.2634   -2.5077 H   0  0  0  0  0  0  0  0  0  0  0  0
    0.8917   -4.1804    1.7047 H   0  0  0  0  0  0  0  0  0  0  0  0
  3  2  1  0
  4  1  1  0
  7  5  1  0
 11  7  1  0
 16 10  1  0
 17  6  1  0
 17 13  1  0
 20  9  1  0
 21 17  1  0
 22 15  2  0
 23 12  1  0
 24 16  1  0
 25 20  1  0
 26 20  1  0
 27 14  2  0
 27 15  1  0
 28  1  1  0
 31  7  1  0
 31 12  1  0
 32 31  1  0
 33  1  1  0
 33  3  1  0
 33 16  1  0
 33 20  1  0
 34 16  1  0
 35  3  1  0
 35 18  2  0
 35 31  1  0
 36 12  1  0
 36 14  1  0
 36 22  1  0
 37 32  1  0
 38  7  1  0
 39 17  1  0
 39 19  1  0
 39 30  1  0
 40  8  1  0
 40 29  1  0
 40 32  1  0
 40 39  1  0
 41 12  1  0
 42  1  1  0
M  END
$$$$
