
     RDKit          3D

 43 46  0  0  0  0  0  0  0  0999 V2000
    1.3094   -1.5255    0.6757 C   0  0  0  0  0  0  0  0  0  0  0  0
    1.8613    2.9331    2.3323 H   0  0  0  0  0  0  0  0  0  0  0  0
   -2.0130   -2.8238   -0.8425 H   0  0  0  0  0  0  0  0  0  0  0  0
   -3.0499    0.0593   -3.5834 H   0  0  0  0  0  0  0  0  0  0  0  0
   -2.6537   -0.0562   -0.4610 C   0  0  0  0  0  0  0  0  0  0  0  0
   -1.9555    1.4018    1.4568 H   0  0  0  0  0  0  0  0  0  0  0  0
   -3.4851   -2.5260   -0.6687 H   0  0  0  0  0  0  0  0  0  0  0  0
    1.7339   -0.5640   -1.9402 S   0  0  0  0  0  0  0  0  0  0  0  0
   -2.7322   -2.5530   -0.2270 N   0  0  0  0  0  0  0  0  0  0  0  0
    2.2997   -1.0760   -0.1481 C   0  0  0  0  0  0  0  0  0  0  0  0
   -0.3924    2.4698    2.9994 H   0  0  0  0  0  0  0  0  0  0  0  0
   -3.5040    1.3548   -2.5571 H   0  0  0  0  0  0  0  0  0  0  0  0
    2.5255    1.5868   -1.7905 H   0  0  0  0  0  0  0  0  0  0  0  0
    2.6477    2.3821    0.1494 H   0  0  0  0  0  0  0  0  0  0  0  0
    0.8612   -2.0467    2.7056 H   0  0  0  0  0  0  0  0  0  0  0  0
   -1.1871    1.7129   -2.7247 H   0  0  0  0  0  0  0  0  0  0  0  0
    3.8448   -1.0025    1.5656 C   0  0  0  0  0  0  0  0  0  0  0  0
   -3.3635    0.6303    0.0257 H   0  0  0  0  0  0  0  0  0  0  0  0
    3.0880   -1.5694    3.4386 H   0  0  0  0  0  0  0  0  0  0  0  0
   -1.4562    0.7610   -2.2631 C   0  0  0  0  0  0  0  0  0  0  0  0
   -0.8430   -0.8649    1.6938 H   0  0  0  0  0  0  0  0  0  0  0  0
    0.8233    1.5650   -0.5072 C   0  0  0  0  0  0  0  0  0  0  0  0
   -0.1803   -2.4881   -0.9311 O   0  0  0  0  0  0  0  0  0  0  0  0
    4.7600   -0.7830    1.9345 H   0  0  0  0  0  0  0  0  0  0  0  0
   -0.0737    2.1995    1.9921 C   0  0  0  0  0  0  0  0  0  0  0  0
    4.1984   -0.4069   -0.4854 H   0  0  0  0  0  0  0  0  0  0  0  0
   -1.4192    0.6779   -0.9006 N   0  0  0  0  0  0  0  0  0  0  0  0
    1.6295   -1.6911    1.9988 C   0  0  0  0  0  0  0  0  0  0  0  0
   -2.4125   -1.3176    0.4108 C   0  0  0  0  0  0  0  0  0  0  0  0
   -0.0454   -1.8736    0.1552 C   0  0  0  0  0  0  0  0  0  0  0  0
    1.0450    1.5193   -2.6331 H   0  0  0  0  0  0  0  0  0  0  0  0
   -1.0552   -1.4360    0.9203 N   0  0  0  0  0  0  0  0  0  0  0  0
   -0.5357    1.2771   -0.1243 C   0  0  0  0  0  0  0  0  0  0  0  0
    2.8595   -1.4587    2.4566 C   0  0  0  0  0  0  0  0  0  0  0  0
   -3.2885   -0.3978   -1.6488 O   0  0  0  0  0  0  0  0  0  0  0  0
    1.6801    2.1532    0.4046 C   0  0  0  0  0  0  0  0  0  0  0  0
    1.5077    1.2109   -1.7868 C   0  0  0  0  0  0  0  0  0  0  0  0
    3.5298   -0.7937    0.2405 C   0  0  0  0  0  0  0  0  0  0  0  0
   -0.9388    1.6089    1.1207 C   0  0  0  0  0  0  0  0  0  0  0  0
   -0.8512    0.0674   -2.7564 H   0  0  0  0  0  0  0  0  0  0  0  0
   -3.1268   -1.2720    1.2661 H   0  0  0  0  0  0  0  0  0  0  0  0
    1.2117    2.4919    1.6590 C   0  0  0  0  0  0  0  0  0  0  0  0
   -2.8534    0.4636   -2.6224 C   0  0  0  0  0  0  0  0  0  0  0  0
  9  3  1  0
  9  7  1  0
 10  1  1  0
 10  8  2  3
 18  5  1  0
 20 16  1  0
 24 17  1  0
 25 11  1  0
 27  5  1  0
 27 20  1  0
 28  1  1  0
 28 15  1  0
 29  5  1  0
 29  9  1  0
 30  1  2  3
 30 23  1  0
 32 21  1  0
 32 29  1  0
 32 30  1  0
 33 22  2  0
 33 27  1  0
 34 17  1  0
 34 19  1  0
 34 28  2  0
 35  5  1  0
 36 14  1  0
 36 22  1  0
 37  8  1  0
 37 13  1  0
 37 22  1  0
 37 31  1  0
 38 10  1  0
 38 17  2  0
 38 26  1  0
 39  6  1  0
 39 25  2  0
 39 33  1  0
 40 20  1  0
 41 29  1  0
 42  2  1  0
 42 25  1  0
 42 36  2  0
 43  4  1  0
 43 12  1  0
 43 20  1  0
 43 35  1  0
M  CHG  2   8   1  23  -1
M  END
$$$$
