
     RDKit          3D

 42 42  0  0  0  0  0  0  0  0999 V2000
   -2.1551    0.7105   -4.4139 H   0  0  0  0  0  0  0  0  0  0  0  0
    3.1878    0.1838    0.3269 H   0  0  0  0  0  0  0  0  0  0  0  0
    3.7177   -0.4479    2.8854 H   0  0  0  0  0  0  0  0  0  0  0  0
   -3.2502    2.6643   -2.9330 H   0  0  0  0  0  0  0  0  0  0  0  0
   -0.7128   -1.3279   -4.0330 H   0  0  0  0  0  0  0  0  0  0  0  0
    2.7053   -0.6508    2.9357 C   0  0  0  0  0  0  0  0  0  0  0  0
   -0.3678    0.2951   -0.1487 C   0  0  0  0  0  0  0  0  0  0  0  0
   -1.9981    0.9171   -3.4404 C   0  0  0  0  0  0  0  0  0  0  0  0
    2.2206    0.2703    3.3591 H   0  0  0  0  0  0  0  0  0  0  0  0
    2.0214   -0.9391    1.6173 N   0  0  0  0  0  0  0  0  0  0  0  0
    2.6362   -2.1370    1.1043 C   0  0  0  0  0  0  0  0  0  0  0  0
   -1.4732   -1.0944    1.6673 C   0  0  0  0  0  0  0  0  0  0  0  0
    2.1474   -2.4264    0.1805 H   0  0  0  0  0  0  0  0  0  0  0  0
   -2.0316    1.8494   -1.3243 C   0  0  0  0  0  0  0  0  0  0  0  0
   -1.9149   -2.0778    1.8558 H   0  0  0  0  0  0  0  0  0  0  0  0
   -1.6964    3.5424   -0.0859 H   0  0  0  0  0  0  0  0  0  0  0  0
   -0.2146    2.1450    0.6418 H   0  0  0  0  0  0  0  0  0  0  0  0
   -0.3786   -0.9650   -3.0540 C   0  0  0  0  0  0  0  0  0  0  0  0
   -2.6213    2.2295    0.6864 H   0  0  0  0  0  0  0  0  0  0  0  0
    2.1388    0.1641    0.7175 C   0  0  0  0  0  0  0  0  0  0  0  0
   -0.9486   -1.0679    0.2442 C   0  0  0  0  0  0  0  0  0  0  0  0
   -2.2831   -0.3882    1.7648 H   0  0  0  0  0  0  0  0  0  0  0  0
   -1.7331   -1.3516   -0.4048 H   0  0  0  0  0  0  0  0  0  0  0  0
    3.6493   -2.1124    0.9213 H   0  0  0  0  0  0  0  0  0  0  0  0
    1.4417    1.0618   -1.0589 H   0  0  0  0  0  0  0  0  0  0  0  0
    0.3456   -1.1176    2.3935 H   0  0  0  0  0  0  0  0  0  0  0  0
   -0.3263    0.9421    1.7471 H   0  0  0  0  0  0  0  0  0  0  0  0
   -1.1277    0.7454   -1.3165 N   0  0  0  0  0  0  0  0  0  0  0  0
    1.9676    1.1031    1.3216 H   0  0  0  0  0  0  0  0  0  0  0  0
   -2.4290    2.7405   -0.3151 C   0  0  0  0  0  0  0  0  0  0  0  0
    1.1874    0.2113   -0.4605 C   0  0  0  0  0  0  0  0  0  0  0  0
    2.5303   -1.4579    3.6215 H   0  0  0  0  0  0  0  0  0  0  0  0
   -0.5478   -0.8784    2.5907 O   0  0  0  0  0  0  0  0  0  0  0  0
    0.6678   -0.7027   -3.2054 H   0  0  0  0  0  0  0  0  0  0  0  0
   -2.5718    1.9653   -2.6269 C   0  0  0  0  0  0  0  0  0  0  0  0
   -0.4726    1.3211    0.9055 N   0  0  0  0  0  0  0  0  0  0  0  0
   -0.1832   -1.8308    0.1294 H   0  0  0  0  0  0  0  0  0  0  0  0
   -0.4372   -1.8014   -2.3810 H   0  0  0  0  0  0  0  0  0  0  0  0
    1.3616   -0.7182   -1.0782 H   0  0  0  0  0  0  0  0  0  0  0  0
    2.4572   -3.0075    1.7928 H   0  0  0  0  0  0  0  0  0  0  0  0
   -1.1144    0.1463   -2.5929 C   0  0  0  0  0  0  0  0  0  0  0  0
   -3.3945    3.2924   -0.5370 H   0  0  0  0  0  0  0  0  0  0  0  0
  6  3  1  0
  8  1  1  0
  9  6  1  0
 10  6  1  0
 11 10  1  0
 13 11  1  0
 15 12  1  0
 18  5  1  0
 20  2  1  0
 20 10  1  0
 21  7  1  0
 21 12  1  0
 22 12  1  0
 23 21  1  0
 24 11  1  0
 28  7  1  0
 28 14  1  0
 29 20  1  0
 30 14  1  0
 30 16  1  0
 30 19  1  0
 31  7  1  0
 31 20  1  0
 31 25  1  0
 32  6  1  0
 33 12  1  0
 33 26  1  0
 34 18  1  0
 35  4  1  0
 35  8  1  0
 35 14  2  0
 36  7  1  0
 36 17  1  0
 36 27  1  0
 37 21  1  0
 38 18  1  0
 39 31  1  0
 40 11  1  0
 41  8  2  0
 41 18  1  0
 41 28  1  0
 42 30  1  0
M  END
$$$$
