
     RDKit          3D

 44 48  0  0  0  0  0  0  0  0999 V2000
    0.5726    4.0071    2.1858 H   0  0  0  0  0  0  0  0  0  0  0  0
   -1.1208   -2.4768   -1.7591 H   0  0  0  0  0  0  0  0  0  0  0  0
    1.1375   -1.8471   -0.9295 H   0  0  0  0  0  0  0  0  0  0  0  0
   -3.9963   -2.4963    0.9147 C   0  0  0  0  0  0  0  0  0  0  0  0
   -0.8091   -0.3078    1.3652 C   0  0  0  0  0  0  0  0  0  0  0  0
    3.3958    4.0635   -0.4582 C   0  0  0  0  0  0  0  0  0  0  0  0
    2.6523    2.9677   -0.2549 C   0  0  0  0  0  0  0  0  0  0  0  0
    2.8075   -0.1125   -1.7159 C   0  0  0  0  0  0  0  0  0  0  0  0
    0.2733   -1.6534   -0.2830 C   0  0  0  0  0  0  0  0  0  0  0  0
   -2.9171   -2.5408    0.0565 C   0  0  0  0  0  0  0  0  0  0  0  0
    3.4617    1.6441   -2.9845 H   0  0  0  0  0  0  0  0  0  0  0  0
   -5.5622   -3.6641    1.8795 H   0  0  0  0  0  0  0  0  0  0  0  0
   -2.9280   -0.1438    1.1160 H   0  0  0  0  0  0  0  0  0  0  0  0
   -4.7751   -5.7609    0.8752 H   0  0  0  0  0  0  0  0  0  0  0  0
    3.7253    6.1408    0.0920 H   0  0  0  0  0  0  0  0  0  0  0  0
    1.9180    6.0635    1.7916 H   0  0  0  0  0  0  0  0  0  0  0  0
   -2.1819   -1.3975   -0.3237 N   0  0  0  0  0  0  0  0  0  0  0  0
   -1.9793    0.6591   -0.1717 H   0  0  0  0  0  0  0  0  0  0  0  0
   -2.0735   -0.2482    0.4968 C   0  0  0  0  0  0  0  0  0  0  0  0
    0.8883    1.7789    0.9046 N   0  0  0  0  0  0  0  0  0  0  0  0
    4.1770    4.0845   -1.2173 H   0  0  0  0  0  0  0  0  0  0  0  0
   -2.8043   -5.6913   -0.6901 H   0  0  0  0  0  0  0  0  0  0  0  0
   -0.9159   -1.1778    2.0279 H   0  0  0  0  0  0  0  0  0  0  0  0
   -4.6864   -3.6644    1.2050 C   0  0  0  0  0  0  0  0  0  0  0  0
    2.1128    5.1329    1.2216 C   0  0  0  0  0  0  0  0  0  0  0  0
    0.3303   -0.4361    0.5197 N   0  0  0  0  0  0  0  0  0  0  0  0
   -0.7429    0.5860    1.9889 H   0  0  0  0  0  0  0  0  0  0  0  0
   -4.3513   -1.5571    1.3043 H   0  0  0  0  0  0  0  0  0  0  0  0
    1.3775    4.0597    1.4526 C   0  0  0  0  0  0  0  0  0  0  0  0
    2.2114   -0.3065   -2.6098 H   0  0  0  0  0  0  0  0  0  0  0  0
    2.0747    0.6385   -0.7021 C   0  0  0  0  0  0  0  0  0  0  0  0
    1.0854    0.6543    0.2200 C   0  0  0  0  0  0  0  0  0  0  0  0
   -2.4790   -3.6853   -0.4932 N   0  0  0  0  0  0  0  0  0  0  0  0
    2.8173    1.7091   -0.9378 C   0  0  0  0  0  0  0  0  0  0  0  0
    0.1655   -2.5457    0.3839 H   0  0  0  0  0  0  0  0  0  0  0  0
    3.1333    5.1918    0.2671 C   0  0  0  0  0  0  0  0  0  0  0  0
   -1.0258   -1.5884   -1.1700 C   0  0  0  0  0  0  0  0  0  0  0  0
    4.6984    1.0621   -1.6534 H   0  0  0  0  0  0  0  0  0  0  0  0
   -3.1783   -4.8215   -0.1931 C   0  0  0  0  0  0  0  0  0  0  0  0
   -4.2691   -4.8331    0.6477 C   0  0  0  0  0  0  0  0  0  0  0  0
    3.6674    1.2356   -1.9408 C   0  0  0  0  0  0  0  0  0  0  0  0
    1.6084    2.8778    0.7146 C   0  0  0  0  0  0  0  0  0  0  0  0
    3.4209   -0.8951   -1.3139 H   0  0  0  0  0  0  0  0  0  0  0  0
   -0.9163   -0.7056   -1.8293 H   0  0  0  0  0  0  0  0  0  0  0  0
  7  6  2  0
  9  3  1  0
 10  4  2  0
 17 10  1  0
 19  5  1  0
 19 13  1  0
 19 17  1  0
 19 18  1  0
 21  6  1  0
 23  5  1  0
 24  4  1  0
 24 12  1  0
 25 16  1  0
 26  5  1  0
 26  9  1  0
 27  5  1  0
 28  4  1  0
 29  1  1  0
 29 25  1  0
 30  8  1  0
 31  8  1  0
 32 20  2  0
 32 26  1  0
 32 31  1  0
 33 10  1  0
 34  7  1  0
 34 31  2  0
 35  9  1  0
 36  6  1  0
 36 15  1  0
 36 25  2  0
 37  2  1  0
 37  9  1  0
 37 17  1  0
 39 22  1  0
 39 33  2  0
 40 14  1  0
 40 24  2  0
 40 39  1  0
 41  8  1  0
 41 11  1  0
 41 34  1  0
 41 38  1  0
 42  7  1  0
 42 20  1  0
 42 29  2  0
 43  8  1  0
 44 37  1  0
M  END
$$$$
