
     RDKit          3D

 42 43  0  0  0  0  0  0  0  0999 V2000
   -0.0963    0.1834   -3.1210 H   0  0  0  0  0  0  0  0  0  0  0  0
   -1.0683    3.9370   -0.2009 C   0  0  0  0  0  0  0  0  0  0  0  0
    0.3860   -3.3780    0.2567 H   0  0  0  0  0  0  0  0  0  0  0  0
    0.4582   -3.6326   -1.4944 H   0  0  0  0  0  0  0  0  0  0  0  0
   -2.3635    2.0011    0.1912 C   0  0  0  0  0  0  0  0  0  0  0  0
   -1.7805    0.4569    1.8657 O   0  0  0  0  0  0  0  0  0  0  0  0
    1.7622   -1.1553    0.5250 C   0  0  0  0  0  0  0  0  0  0  0  0
    1.4127   -1.6946   -2.9514 H   0  0  0  0  0  0  0  0  0  0  0  0
   -1.4680    1.5741    1.2463 C   0  0  0  0  0  0  0  0  0  0  0  0
    1.1099   -1.0947    3.3251 O   0  0  0  0  0  0  0  0  0  0  0  0
   -1.0731   -2.0567   -3.0316 H   0  0  0  0  0  0  0  0  0  0  0  0
   -0.3688    2.4015    1.5216 C   0  0  0  0  0  0  0  0  0  0  0  0
   -0.9579   -0.0288    2.9431 C   0  0  0  0  0  0  0  0  0  0  0  0
   -2.1276    3.1482   -0.4829 C   0  0  0  0  0  0  0  0  0  0  0  0
    2.2942    0.8193   -0.1821 H   0  0  0  0  0  0  0  0  0  0  0  0
    0.6989    4.1814    1.0241 H   0  0  0  0  0  0  0  0  0  0  0  0
    0.3698   -0.6074    2.4865 C   0  0  0  0  0  0  0  0  0  0  0  0
    0.3425   -2.8760   -0.7138 C   0  0  0  0  0  0  0  0  0  0  0  0
   -0.7943    0.7236    3.6993 H   0  0  0  0  0  0  0  0  0  0  0  0
   -1.0708   -2.2823   -0.9039 C   0  0  0  0  0  0  0  0  0  0  0  0
   -0.0521   -0.3561   -2.1849 C   0  0  0  0  0  0  0  0  0  0  0  0
    2.7376    0.0226    0.3884 C   0  0  0  0  0  0  0  0  0  0  0  0
    2.4301   -2.4115   -0.9715 H   0  0  0  0  0  0  0  0  0  0  0  0
    1.4814   -1.8609   -0.8020 C   0  0  0  0  0  0  0  0  0  0  0  0
    2.9989    0.4315    1.3672 H   0  0  0  0  0  0  0  0  0  0  0  0
    1.3313   -1.0318   -2.0620 C   0  0  0  0  0  0  0  0  0  0  0  0
    3.6874   -0.3101   -0.1246 H   0  0  0  0  0  0  0  0  0  0  0  0
   -1.1604   -1.4010   -2.1572 C   0  0  0  0  0  0  0  0  0  0  0  0
   -0.1741    3.5649    0.7981 C   0  0  0  0  0  0  0  0  0  0  0  0
   -2.8223    3.4334   -1.2857 H   0  0  0  0  0  0  0  0  0  0  0  0
    2.1548   -1.8821    1.2487 H   0  0  0  0  0  0  0  0  0  0  0  0
   -1.4116   -1.6685   -0.0443 H   0  0  0  0  0  0  0  0  0  0  0  0
   -2.1495   -0.8899   -2.2059 H   0  0  0  0  0  0  0  0  0  0  0  0
   -1.8288   -3.0864   -0.9669 H   0  0  0  0  0  0  0  0  0  0  0  0
   -3.1970    1.3225   -0.0071 H   0  0  0  0  0  0  0  0  0  0  0  0
   -0.0927   -0.1978    0.5471 H   0  0  0  0  0  0  0  0  0  0  0  0
    0.3203    2.1238    2.2709 H   0  0  0  0  0  0  0  0  0  0  0  0
   -0.8693    4.8744   -0.7780 H   0  0  0  0  0  0  0  0  0  0  0  0
    2.1283   -0.2854   -2.1935 H   0  0  0  0  0  0  0  0  0  0  0  0
    0.5777   -0.6295    1.1402 N   0  0  0  0  0  0  0  0  0  0  0  0
   -0.2175    0.4046   -1.3768 H   0  0  0  0  0  0  0  0  0  0  0  0
   -1.5376   -0.7870    3.3969 H   0  0  0  0  0  0  0  0  0  0  0  0
  9  5  2  0
  9  6  1  0
 12  9  1  0
 13  6  1  0
 14  2  2  0
 14  5  1  0
 17 10  2  0
 17 13  1  0
 18  3  1  0
 18  4  1  0
 19 13  1  0
 20 18  1  0
 21  1  1  0
 22  7  1  0
 22 15  1  0
 24  7  1  0
 24 18  1  0
 24 23  1  0
 25 22  1  0
 26  8  1  0
 26 21  1  0
 26 24  1  0
 27 22  1  0
 28 11  1  0
 28 20  1  0
 28 21  1  0
 29  2  1  0
 29 12  2  0
 29 16  1  0
 30 14  1  0
 31  7  1  0
 32 20  1  0
 33 28  1  0
 34 20  1  0
 35  5  1  0
 37 12  1  0
 38  2  1  0
 39 26  1  0
 40  7  1  0
 40 17  1  0
 40 36  1  0
 41 21  1  0
 42 13  1  0
M  END
$$$$
