
     RDKit          3D

 43 44  0  0  0  0  0  0  0  0999 V2000
   -1.3078    1.5482    0.1143 H   0  0  0  0  0  0  0  0  0  0  0  0
   -0.7518    0.0921    0.7710 H   0  0  0  0  0  0  0  0  0  0  0  0
    1.4250    1.8111    0.2717 N   0  0  0  0  0  0  0  0  0  0  0  0
    2.4614   -1.2022   -4.0273 H   0  0  0  0  0  0  0  0  0  0  0  0
   -2.5927   -2.7477    0.0224 C   0  0  0  0  0  0  0  0  0  0  0  0
   -3.4027   -1.3643    3.5068 H   0  0  0  0  0  0  0  0  0  0  0  0
    2.1229   -1.6508   -1.1564 H   0  0  0  0  0  0  0  0  0  0  0  0
    3.3844    2.1042    0.4972 H   0  0  0  0  0  0  0  0  0  0  0  0
   -3.0261   -3.1078    2.3627 C   0  0  0  0  0  0  0  0  0  0  0  0
    2.0581   -0.7740   -3.1765 C   0  0  0  0  0  0  0  0  0  0  0  0
   -1.4856    0.7860    2.9576 H   0  0  0  0  0  0  0  0  0  0  0  0
   -2.0785    2.2897    2.3276 H   0  0  0  0  0  0  0  0  0  0  0  0
   -3.9810    0.7514    2.5181 H   0  0  0  0  0  0  0  0  0  0  0  0
   -0.8969    1.1622    1.0002 C   0  0  0  0  0  0  0  0  0  0  0  0
    2.8048    2.1923   -1.7975 H   0  0  0  0  0  0  0  0  0  0  0  0
    2.4402    2.7906    1.6638 H   0  0  0  0  0  0  0  0  0  0  0  0
   -3.1345   -3.7730    3.1982 H   0  0  0  0  0  0  0  0  0  0  0  0
   -3.2454    0.6127    1.7404 C   0  0  0  0  0  0  0  0  0  0  0  0
   -3.5972    1.0822    0.7807 H   0  0  0  0  0  0  0  0  0  0  0  0
    2.5611    2.6067    0.6702 C   0  0  0  0  0  0  0  0  0  0  0  0
    3.5714   -1.9560   -2.0828 H   0  0  0  0  0  0  0  0  0  0  0  0
   -2.3683   -3.1240   -0.9662 H   0  0  0  0  0  0  0  0  0  0  0  0
    3.3982    0.0840   -1.3306 C   0  0  0  0  0  0  0  0  0  0  0  0
    2.7910    1.0973   -3.8887 H   0  0  0  0  0  0  0  0  0  0  0  0
    1.0821    1.1915   -3.5109 H   0  0  0  0  0  0  0  0  0  0  0  0
   -2.8055   -1.3820    0.2013 C   0  0  0  0  0  0  0  0  0  0  0  0
    1.0423   -1.1406   -3.0783 H   0  0  0  0  0  0  0  0  0  0  0  0
   -2.7055   -0.6982   -0.6299 H   0  0  0  0  0  0  0  0  0  0  0  0
    2.0478    0.7729   -3.1921 C   0  0  0  0  0  0  0  0  0  0  0  0
    0.5037    2.2663    2.3811 O   0  0  0  0  0  0  0  0  0  0  0  0
    3.5165    0.0315   -0.1899 H   0  0  0  0  0  0  0  0  0  0  0  0
   -2.7451   -3.6036    1.0852 C   0  0  0  0  0  0  0  0  0  0  0  0
   -2.6010   -4.6648    0.9383 H   0  0  0  0  0  0  0  0  0  0  0  0
   -3.1848   -1.7539    2.5302 C   0  0  0  0  0  0  0  0  0  0  0  0
    4.3636    0.3257   -1.7544 H   0  0  0  0  0  0  0  0  0  0  0  0
    2.8313   -1.2071   -1.8745 C   0  0  0  0  0  0  0  0  0  0  0  0
    2.3939    1.1528   -1.7715 C   0  0  0  0  0  0  0  0  0  0  0  0
   -3.1042   -0.8996    1.4662 C   0  0  0  0  0  0  0  0  0  0  0  0
    2.5129    3.4966    0.0883 H   0  0  0  0  0  0  0  0  0  0  0  0
    0.3385    1.8118    1.3525 C   0  0  0  0  0  0  0  0  0  0  0  0
    0.1337    0.5648   -1.2895 O   0  0  0  0  0  0  0  0  0  0  0  0
    1.1697    1.1557   -0.8776 C   0  0  0  0  0  0  0  0  0  0  0  0
   -1.9400    1.2691    2.1487 C   0  0  0  0  0  0  0  0  0  0  0  0
 10  4  1  0
 14  1  1  0
 14  2  1  0
 17  9  1  0
 18 13  1  0
 19 18  1  0
 20  3  1  0
 20  8  1  0
 20 16  1  0
 22  5  1  0
 26  5  2  0
 27 10  1  0
 28 26  1  0
 29 10  1  0
 29 24  1  0
 29 25  1  0
 31 23  1  0
 32  5  1  0
 32  9  2  0
 33 32  1  0
 34  6  1  0
 34  9  1  0
 35 23  1  0
 36  7  1  0
 36 10  1  0
 36 21  1  0
 36 23  1  0
 37 15  1  0
 37 23  1  0
 37 29  1  0
 38 18  1  0
 38 26  1  0
 38 34  2  0
 39 20  1  0
 40  3  1  0
 40 14  1  0
 40 30  2  0
 42  3  1  0
 42 37  1  0
 42 41  2  0
 43 11  1  0
 43 12  1  0
 43 14  1  0
 43 18  1  0
M  END
$$$$
