
     RDKit          3D

 41 43  0  0  0  0  0  0  0  0999 V2000
   -1.5371    0.2136    0.2531 H   0  0  0  0  0  0  0  0  0  0  0  0
   -0.7771    0.7399   -2.5551 C   0  0  0  0  0  0  0  0  0  0  0  0
   -1.1806   -3.0809    3.7650 C   0  0  0  0  0  0  0  0  0  0  0  0
   -2.2382   -1.9287    3.6591 C   0  0  0  0  0  0  0  0  0  0  0  0
    1.1096   -0.0262   -3.1112 H   0  0  0  0  0  0  0  0  0  0  0  0
    0.2939    0.4075   -3.5750 C   0  0  0  0  0  0  0  0  0  0  0  0
   -3.2117   -2.3177    3.8441 H   0  0  0  0  0  0  0  0  0  0  0  0
   -1.3038   -3.5821    4.7128 H   0  0  0  0  0  0  0  0  0  0  0  0
   -1.6357    1.1744   -3.0425 H   0  0  0  0  0  0  0  0  0  0  0  0
    0.2940   -1.5187    2.4495 C   0  0  0  0  0  0  0  0  0  0  0  0
    1.5573   -1.1422    2.0273 C   0  0  0  0  0  0  0  0  0  0  0  0
    0.5957    0.2311    0.3109 C   0  0  0  0  0  0  0  0  0  0  0  0
    0.2153   -2.4704    3.6571 C   0  0  0  0  0  0  0  0  0  0  0  0
   -0.2312    1.7358   -1.5114 C   0  0  0  0  0  0  0  0  0  0  0  0
   -2.8476   -0.5138    2.1339 H   0  0  0  0  0  0  0  0  0  0  0  0
   -0.1260    2.1603   -4.8035 H   0  0  0  0  0  0  0  0  0  0  0  0
   -0.5675    3.4926   -2.6456 H   0  0  0  0  0  0  0  0  0  0  0  0
   -0.1332   -0.2865   -4.3252 H   0  0  0  0  0  0  0  0  0  0  0  0
    0.3818   -1.8860    4.5680 H   0  0  0  0  0  0  0  0  0  0  0  0
    0.6892    3.6513   -1.4813 H   0  0  0  0  0  0  0  0  0  0  0  0
   -2.2125   -1.3761    2.2127 C   0  0  0  0  0  0  0  0  0  0  0  0
   -1.0139    2.0458   -0.8737 H   0  0  0  0  0  0  0  0  0  0  0  0
    1.4624    1.4755   -5.0504 H   0  0  0  0  0  0  0  0  0  0  0  0
   -1.3246   -3.8371    2.9544 H   0  0  0  0  0  0  0  0  0  0  0  0
    0.9654   -3.2483    3.5557 H   0  0  0  0  0  0  0  0  0  0  0  0
   -2.6026   -2.1517    1.5758 H   0  0  0  0  0  0  0  0  0  0  0  0
    3.0251    0.1095    0.5746 C   0  0  0  0  0  0  0  0  0  0  0  0
    2.4525   -1.5546    2.5797 H   0  0  0  0  0  0  0  0  0  0  0  0
    1.7070   -0.2452    0.9449 C   0  0  0  0  0  0  0  0  0  0  0  0
    1.2951    2.6982   -3.2356 C   0  0  0  0  0  0  0  0  0  0  0  0
    4.0811    0.4637    0.2396 N   0  0  0  0  0  0  0  0  0  0  0  0
    0.8044    1.1210   -0.7052 N   0  0  0  0  0  0  0  0  0  0  0  0
   -1.1173   -0.1940   -2.0670 H   0  0  0  0  0  0  0  0  0  0  0  0
   -2.0199   -1.1258    4.3714 H   0  0  0  0  0  0  0  0  0  0  0  0
    1.5929    3.6340   -3.7535 H   0  0  0  0  0  0  0  0  0  0  0  0
   -0.7862   -1.0449    1.8346 C   0  0  0  0  0  0  0  0  0  0  0  0
    0.2755    3.0005   -2.1636 C   0  0  0  0  0  0  0  0  0  0  0  0
   -0.5997   -0.1258    0.7320 C   0  0  0  0  0  0  0  0  0  0  0  0
    2.1831    2.2585   -2.8265 H   0  0  0  0  0  0  0  0  0  0  0  0
    0.7235    1.7096   -4.3005 C   0  0  0  0  0  0  0  0  0  0  0  0
    1.7613    1.3338   -0.9295 H   0  0  0  0  0  0  0  0  0  0  0  0
  4  3  1  0
  6  2  1  0
  6  5  1  0
  7  4  1  0
  8  3  1  0
  9  2  1  0
 11 10  2  0
 13  3  1  0
 13 10  1  0
 14  2  1  0
 18  6  1  0
 19 13  1  0
 21  4  1  0
 21 15  1  0
 22 14  1  0
 24  3  1  0
 25 13  1  0
 26 21  1  0
 28 11  1  0
 29 11  1  0
 29 12  2  0
 29 27  1  0
 31 27  3  0
 32 12  1  0
 32 14  1  0
 33  2  1  0
 34  4  1  0
 35 30  1  0
 36 10  1  0
 36 21  1  0
 37 14  1  0
 37 17  1  0
 37 20  1  0
 37 30  1  0
 38  1  1  0
 38 12  1  0
 38 36  2  0
 39 30  1  0
 40  6  1  0
 40 16  1  0
 40 23  1  0
 40 30  1  0
 41 32  1  0
M  END
$$$$
