
     RDKit          3D

 43 44  0  0  0  0  0  0  0  0999 V2000
    1.7800   -2.3644   -0.1497 H   0  0  0  0  0  0  0  0  0  0  0  0
   -3.2781    1.8299   -4.3745 H   0  0  0  0  0  0  0  0  0  0  0  0
    1.1512    0.4034    2.4109 C   0  0  0  0  0  0  0  0  0  0  0  0
   -1.6965    2.8766   -3.6387 O   0  0  0  0  0  0  0  0  0  0  0  0
    2.8131    0.7544    4.5494 C   0  0  0  0  0  0  0  0  0  0  0  0
   -2.0556   -1.7691    0.2924 H   0  0  0  0  0  0  0  0  0  0  0  0
   -2.1908   -0.0327    0.0727 H   0  0  0  0  0  0  0  0  0  0  0  0
    2.7781    1.7475    4.1974 H   0  0  0  0  0  0  0  0  0  0  0  0
   -2.5541    1.5588   -1.4483 H   0  0  0  0  0  0  0  0  0  0  0  0
   -3.7985   -1.1971   -1.3741 H   0  0  0  0  0  0  0  0  0  0  0  0
   -1.4006    3.2112   -2.8901 H   0  0  0  0  0  0  0  0  0  0  0  0
    2.2759   -0.3863    2.5581 C   0  0  0  0  0  0  0  0  0  0  0  0
   -3.0409    1.1951   -2.3164 C   0  0  0  0  0  0  0  0  0  0  0  0
   -0.1479    0.1439   -1.7878 C   0  0  0  0  0  0  0  0  0  0  0  0
    2.4780   -1.4044    1.6223 C   0  0  0  0  0  0  0  0  0  0  0  0
    3.1047   -0.2023    3.5517 N   0  0  0  0  0  0  0  0  0  0  0  0
    1.6284   -1.6045    0.5510 C   0  0  0  0  0  0  0  0  0  0  0  0
   -0.7914    0.6807   -3.7618 H   0  0  0  0  0  0  0  0  0  0  0  0
   -0.6687   -1.0368   -3.4893 H   0  0  0  0  0  0  0  0  0  0  0  0
    3.5842    0.7353    5.3526 H   0  0  0  0  0  0  0  0  0  0  0  0
    0.2611    0.2381    1.3776 C   0  0  0  0  0  0  0  0  0  0  0  0
   -3.0242   -0.4810   -3.6517 H   0  0  0  0  0  0  0  0  0  0  0  0
   -0.1200   -1.9294   -1.2040 H   0  0  0  0  0  0  0  0  0  0  0  0
   -0.3857    1.1244   -1.3379 H   0  0  0  0  0  0  0  0  0  0  0  0
    1.8527    0.5812    5.0712 H   0  0  0  0  0  0  0  0  0  0  0  0
   -2.4782   -0.1563   -2.7284 C   0  0  0  0  0  0  0  0  0  0  0  0
   -0.5597    0.8713    1.2677 H   0  0  0  0  0  0  0  0  0  0  0  0
    0.5022   -0.7724    0.3758 C   0  0  0  0  0  0  0  0  0  0  0  0
    4.9190   -1.0043    2.8391 H   0  0  0  0  0  0  0  0  0  0  0  0
   -4.1015    1.1009   -2.1799 H   0  0  0  0  0  0  0  0  0  0  0  0
    4.0226   -2.0969    3.8621 H   0  0  0  0  0  0  0  0  0  0  0  0
   -0.3923   -0.9792   -0.7215 C   0  0  0  0  0  0  0  0  0  0  0  0
    4.8837   -0.7469    4.5730 H   0  0  0  0  0  0  0  0  0  0  0  0
    3.3275   -2.0664    1.6714 H   0  0  0  0  0  0  0  0  0  0  0  0
    4.2477   -1.0435    3.7011 C   0  0  0  0  0  0  0  0  0  0  0  0
   -1.0073   -0.0826   -3.0559 C   0  0  0  0  0  0  0  0  0  0  0  0
   -2.4827   -2.2035   -2.0734 H   0  0  0  0  0  0  0  0  0  0  0  0
    0.8772    0.1227   -2.0364 H   0  0  0  0  0  0  0  0  0  0  0  0
   -1.9219   -0.9820   -0.3997 C   0  0  0  0  0  0  0  0  0  0  0  0
   -3.6512    3.1157   -3.2461 H   0  0  0  0  0  0  0  0  0  0  0  0
   -2.9289    2.2870   -3.4711 C   0  0  0  0  0  0  0  0  0  0  0  0
   -2.7579   -1.2164   -1.6593 C   0  0  0  0  0  0  0  0  0  0  0  0
    0.9473    1.1807    3.0984 H   0  0  0  0  0  0  0  0  0  0  0  0
  8  5  1  0
 11  4  1  0
 12  3  2  0
 13  9  1  0
 15 12  1  0
 16  5  1  0
 16 12  1  0
 17  1  1  0
 17 15  2  0
 20  5  1  0
 21  3  1  0
 24 14  1  0
 25  5  1  0
 26 13  1  0
 26 22  1  0
 27 21  1  0
 28 17  1  0
 28 21  2  0
 30 13  1  0
 32 14  1  0
 32 23  1  0
 32 28  1  0
 34 15  1  0
 35 16  1  0
 35 29  1  0
 35 31  1  0
 35 33  1  0
 36 14  1  0
 36 18  1  0
 36 19  1  0
 36 26  1  0
 38 14  1  0
 39  6  1  0
 39  7  1  0
 39 32  1  0
 41  2  1  0
 41  4  1  0
 41 13  1  0
 41 40  1  0
 42 10  1  0
 42 26  1  0
 42 37  1  0
 42 39  1  0
 43  3  1  0
M  END
$$$$
