
     RDKit          3D

 41 42  0  0  0  0  0  0  0  0999 V2000
    1.7202    1.0572    0.1587 H   0  0  0  0  0  0  0  0  0  0  0  0
   -1.3979    1.3486    0.1769 O   0  0  0  0  0  0  0  0  0  0  0  0
   -1.8481   -1.1257   -1.9291 H   0  0  0  0  0  0  0  0  0  0  0  0
    0.2901   -1.1133   -1.8370 C   0  0  0  0  0  0  0  0  0  0  0  0
    1.5156    2.1170   -2.0096 C   0  0  0  0  0  0  0  0  0  0  0  0
   -1.6743    0.6687    4.3534 H   0  0  0  0  0  0  0  0  0  0  0  0
    2.3864    0.6863   -3.4289 H   0  0  0  0  0  0  0  0  0  0  0  0
    0.0477    0.7494    4.5990 H   0  0  0  0  0  0  0  0  0  0  0  0
    2.2987   -1.8501   -1.1425 H   0  0  0  0  0  0  0  0  0  0  0  0
    1.2236   -1.9397   -1.0403 C   0  0  0  0  0  0  0  0  0  0  0  0
   -2.6724   -1.2733    2.9933 H   0  0  0  0  0  0  0  0  0  0  0  0
    2.4690    0.1413   -1.7211 H   0  0  0  0  0  0  0  0  0  0  0  0
   -0.1165    3.2099   -1.1491 H   0  0  0  0  0  0  0  0  0  0  0  0
   -0.9091    1.7613   -2.5927 C   0  0  0  0  0  0  0  0  0  0  0  0
    1.5696    2.7805   -2.8264 H   0  0  0  0  0  0  0  0  0  0  0  0
   -0.8400    0.0896    4.4937 C   0  0  0  0  0  0  0  0  0  0  0  0
    2.2142   -0.5220    2.0556 S   0  0  0  0  0  0  0  0  0  0  0  0
   -0.9819   -0.4776    5.4236 H   0  0  0  0  0  0  0  0  0  0  0  0
    0.0740    2.1827   -1.4596 C   0  0  0  0  0  0  0  0  0  0  0  0
    1.1332   -3.5589    0.2844 H   0  0  0  0  0  0  0  0  0  0  0  0
    1.8897    0.6751   -2.4633 C   0  0  0  0  0  0  0  0  0  0  0  0
    0.6832   -0.1469   -2.6982 N   0  0  0  0  0  0  0  0  0  0  0  0
   -1.6056   -2.4474    2.3237 H   0  0  0  0  0  0  0  0  0  0  0  0
    0.3171   -1.4707    3.5376 H   0  0  0  0  0  0  0  0  0  0  0  0
    2.2316    2.4443   -1.2616 H   0  0  0  0  0  0  0  0  0  0  0  0
   -1.1956    0.2891    1.7652 H   0  0  0  0  0  0  0  0  0  0  0  0
    0.1773    1.0009   -4.3221 H   0  0  0  0  0  0  0  0  0  0  0  0
   -0.4015   -0.1129    2.1604 N   0  0  0  0  0  0  0  0  0  0  0  0
   -1.8529    1.4455   -2.1833 H   0  0  0  0  0  0  0  0  0  0  0  0
   -1.1165   -0.0794   -3.7909 H   0  0  0  0  0  0  0  0  0  0  0  0
   -0.5597   -0.8937    3.3221 C   0  0  0  0  0  0  0  0  0  0  0  0
    0.8302    0.9347    0.4828 N   0  0  0  0  0  0  0  0  0  0  0  0
   -1.0841    2.6486   -3.2061 H   0  0  0  0  0  0  0  0  0  0  0  0
    0.7826    0.0847    1.5619 C   0  0  0  0  0  0  0  0  0  0  0  0
   -0.3148    0.6399   -3.4704 C   0  0  0  0  0  0  0  0  0  0  0  0
   -0.2532    1.4388   -0.1986 C   0  0  0  0  0  0  0  0  0  0  0  0
   -1.0251   -2.7994   -0.3612 S   0  0  0  0  0  0  0  0  0  0  0  0
   -1.7534   -1.8049    3.1715 C   0  0  0  0  0  0  0  0  0  0  0  0
   -1.9347   -2.4354    4.0521 H   0  0  0  0  0  0  0  0  0  0  0  0
   -0.9794   -1.5034   -1.5191 C   0  0  0  0  0  0  0  0  0  0  0  0
    0.6628   -2.8392   -0.3047 C   0  0  0  0  0  0  0  0  0  0  0  0
 10  4  1  0
 10  9  1  0
 15  5  1  0
 16  6  1  0
 16  8  1  0
 18 16  1  0
 19  5  1  0
 19 13  1  0
 19 14  1  0
 21  5  1  0
 21  7  1  0
 21 12  1  0
 22  4  1  0
 22 21  1  0
 25  5  1  0
 28 26  1  0
 29 14  1  0
 31 16  1  0
 31 24  1  0
 31 28  1  0
 32  1  1  0
 33 14  1  0
 34 17  2  0
 34 28  1  0
 34 32  1  0
 35 14  1  0
 35 22  1  0
 35 27  1  0
 35 30  1  0
 36  2  2  0
 36 19  1  0
 36 32  1  0
 38 11  1  0
 38 23  1  0
 38 31  1  0
 39 38  1  0
 40  3  1  0
 40  4  2  0
 40 37  1  0
 41 10  2  0
 41 20  1  0
 41 37  1  0
M  END
$$$$
