
     RDKit          3D

 43 44  0  0  0  0  0  0  0  0999 V2000
    2.6059    0.8082    0.2981 C   0  0  0  0  0  0  0  0  0  0  0  0
   -2.4977    0.4201   -1.8310 C   0  0  0  0  0  0  0  0  0  0  0  0
   -2.1522   -0.8217    0.4206 H   0  0  0  0  0  0  0  0  0  0  0  0
    0.5056    4.0139    0.8411 H   0  0  0  0  0  0  0  0  0  0  0  0
    0.7559    2.5098    2.5597 H   0  0  0  0  0  0  0  0  0  0  0  0
   -1.2728    2.0886   -1.4909 H   0  0  0  0  0  0  0  0  0  0  0  0
    1.7576   -3.2029    2.3097 H   0  0  0  0  0  0  0  0  0  0  0  0
    0.3599   -0.7476    4.3164 H   0  0  0  0  0  0  0  0  0  0  0  0
   -1.2720   -1.2402    2.6137 H   0  0  0  0  0  0  0  0  0  0  0  0
   -1.2165    1.0948    0.2203 C   0  0  0  0  0  0  0  0  0  0  0  0
   -2.9428    0.9197   -2.6429 H   0  0  0  0  0  0  0  0  0  0  0  0
    1.5924   -2.5052    1.4826 C   0  0  0  0  0  0  0  0  0  0  0  0
   -0.1814   -2.3865   -1.3573 H   0  0  0  0  0  0  0  0  0  0  0  0
    0.7080   -2.8999    0.4553 C   0  0  0  0  0  0  0  0  0  0  0  0
   -2.0701   -1.8571   -2.4278 O   0  0  0  0  0  0  0  0  0  0  0  0
   -1.6395   -0.7254   -2.4159 C   0  0  0  0  0  0  0  0  0  0  0  0
    1.3671    0.6602    4.1587 H   0  0  0  0  0  0  0  0  0  0  0  0
    2.9312   -0.9891    2.1460 H   0  0  0  0  0  0  0  0  0  0  0  0
    3.1746    1.8159    0.2864 N   0  0  0  0  0  0  0  0  0  0  0  0
   -0.5959    0.5983   -3.6716 H   0  0  0  0  0  0  0  0  0  0  0  0
    0.4900   -2.0529   -0.6534 C   0  0  0  0  0  0  0  0  0  0  0  0
    0.9626    0.2899   -1.9765 S   0  0  0  0  0  0  0  0  0  0  0  0
    0.7168   -2.1031   -3.4601 H   0  0  0  0  0  0  0  0  0  0  0  0
    0.2168   -3.8531    0.5056 H   0  0  0  0  0  0  0  0  0  0  0  0
    1.9933   -0.4502    0.2831 C   0  0  0  0  0  0  0  0  0  0  0  0
   -1.7535    1.3744   -1.0491 N   0  0  0  0  0  0  0  0  0  0  0  0
   -0.8853    3.8953   -0.1798 H   0  0  0  0  0  0  0  0  0  0  0  0
    2.2481   -1.2983    1.4073 C   0  0  0  0  0  0  0  0  0  0  0  0
    0.1061    1.7729    2.0729 C   0  0  0  0  0  0  0  0  0  0  0  0
   -3.2960    0.0042   -1.2325 H   0  0  0  0  0  0  0  0  0  0  0  0
   -1.0154   -0.3048    2.0948 C   0  0  0  0  0  0  0  0  0  0  0  0
    1.1454   -0.8483   -0.6706 C   0  0  0  0  0  0  0  0  0  0  0  0
    0.4019    0.2999    4.1399 C   0  0  0  0  0  0  0  0  0  0  0  0
    0.6085    3.2220   -0.6742 H   0  0  0  0  0  0  0  0  0  0  0  0
   -0.3780    2.0532    0.8312 C   0  0  0  0  0  0  0  0  0  0  0  0
   -0.1748    0.7813    4.8686 H   0  0  0  0  0  0  0  0  0  0  0  0
   -0.5262   -1.7731   -4.6280 H   0  0  0  0  0  0  0  0  0  0  0  0
    0.2668   -1.2791   -3.9762 C   0  0  0  0  0  0  0  0  0  0  0  0
   -1.5199   -0.0779    0.8880 C   0  0  0  0  0  0  0  0  0  0  0  0
   -0.1778    0.5874    2.7312 C   0  0  0  0  0  0  0  0  0  0  0  0
   -0.3790   -0.2529   -3.0757 C   0  0  0  0  0  0  0  0  0  0  0  0
   -0.0392    3.3343    0.1062 C   0  0  0  0  0  0  0  0  0  0  0  0
    1.0714   -0.8749   -4.6237 H   0  0  0  0  0  0  0  0  0  0  0  0
 11  2  1  0
 12  7  1  0
 14 12  2  0
 16  2  1  0
 16 15  2  0
 19  1  3  0
 21 13  1  0
 21 14  1  0
 24 14  1  0
 25  1  1  0
 26  2  1  0
 26  6  1  0
 26 10  1  0
 28 12  1  0
 28 18  1  0
 28 25  2  0
 29  5  1  0
 30  2  1  0
 31  9  1  0
 32 21  2  0
 32 22  1  0
 32 25  1  0
 33  8  1  0
 33 17  1  0
 35 10  1  0
 35 29  2  0
 36 33  1  0
 38 23  1  0
 38 37  1  0
 39  3  1  0
 39 10  2  0
 39 31  1  0
 40 29  1  0
 40 31  2  0
 40 33  1  0
 41 16  1  0
 41 20  1  0
 41 22  1  0
 41 38  1  0
 42  4  1  0
 42 27  1  0
 42 34  1  0
 42 35  1  0
 43 38  1  0
M  END
$$$$
