
     RDKit          3D

 44 46  0  0  0  0  0  0  0  0999 V2000
   -0.2475   -2.9523   -2.1139 H   0  0  0  0  0  0  0  0  0  0  0  0
   -0.6245   -0.4783   -2.4096 H   0  0  0  0  0  0  0  0  0  0  0  0
    1.0644    3.0377   -1.8647 C   0  0  0  0  0  0  0  0  0  0  0  0
    2.5690    0.3715    0.4441 C   0  0  0  0  0  0  0  0  0  0  0  0
    1.7068    1.3618   -0.1906 C   0  0  0  0  0  0  0  0  0  0  0  0
    3.1145    0.8350    1.3428 H   0  0  0  0  0  0  0  0  0  0  0  0
   -2.7408   -2.6641    0.5781 H   0  0  0  0  0  0  0  0  0  0  0  0
    2.4453   -1.9122    1.5960 C   0  0  0  0  0  0  0  0  0  0  0  0
   -1.7861    0.3186   -1.2838 H   0  0  0  0  0  0  0  0  0  0  0  0
   -0.9884    1.3794    2.4201 C   0  0  0  0  0  0  0  0  0  0  0  0
   -1.5471    3.0712    0.8497 C   0  0  0  0  0  0  0  0  0  0  0  0
   -0.3787    2.7241    0.0532 C   0  0  0  0  0  0  0  0  0  0  0  0
   -1.1069   -3.8625   -0.8842 H   0  0  0  0  0  0  0  0  0  0  0  0
    3.6218   -0.0943   -0.3786 O   0  0  0  0  0  0  0  0  0  0  0  0
   -1.4881   -1.7762   -0.8753 C   0  0  0  0  0  0  0  0  0  0  0  0
   -0.7679    4.1194   -1.5097 H   0  0  0  0  0  0  0  0  0  0  0  0
   -2.6814    2.6745    2.6056 H   0  0  0  0  0  0  0  0  0  0  0  0
    1.2965    3.5288   -2.7977 H   0  0  0  0  0  0  0  0  0  0  0  0
   -3.5722   -2.0964   -0.8036 H   0  0  0  0  0  0  0  0  0  0  0  0
   -1.9476   -3.2701   -2.2803 H   0  0  0  0  0  0  0  0  0  0  0  0
    0.8772   -0.1155    2.0908 N   0  0  0  0  0  0  0  0  0  0  0  0
   -1.1863   -3.0640   -1.5819 C   0  0  0  0  0  0  0  0  0  0  0  0
   -0.4517   -1.4897    0.0896 N   0  0  0  0  0  0  0  0  0  0  0  0
    3.0035   -0.5668   -1.1053 H   0  0  0  0  0  0  0  0  0  0  0  0
    3.0230   -1.5882    2.4134 H   0  0  0  0  0  0  0  0  0  0  0  0
   -0.0651    3.3618   -1.1778 C   0  0  0  0  0  0  0  0  0  0  0  0
    0.0865    0.9499    1.7236 C   0  0  0  0  0  0  0  0  0  0  0  0
    0.8424   -1.2616   -0.1869 C   0  0  0  0  0  0  0  0  0  0  0  0
   -1.8262    2.4305    1.9854 C   0  0  0  0  0  0  0  0  0  0  0  0
   -3.0208   -0.9801    0.3656 H   0  0  0  0  0  0  0  0  0  0  0  0
   -2.3675   -0.7707   -2.5496 H   0  0  0  0  0  0  0  0  0  0  0  0
    1.3498   -1.4123   -1.2874 O   0  0  0  0  0  0  0  0  0  0  0  0
    1.7353   -2.7090    1.9047 H   0  0  0  0  0  0  0  0  0  0  0  0
    1.9671    2.0938   -1.3596 C   0  0  0  0  0  0  0  0  0  0  0  0
    0.4200    1.7252    0.5058 C   0  0  0  0  0  0  0  0  0  0  0  0
   -1.2019    0.8086    3.3169 H   0  0  0  0  0  0  0  0  0  0  0  0
   -1.5840   -0.5668   -1.8613 C   0  0  0  0  0  0  0  0  0  0  0  0
   -2.1562    3.8362    0.4834 H   0  0  0  0  0  0  0  0  0  0  0  0
   -2.8198   -1.8800   -0.1010 C   0  0  0  0  0  0  0  0  0  0  0  0
    3.0763   -2.3058    0.8381 H   0  0  0  0  0  0  0  0  0  0  0  0
    1.6599   -0.7312    1.0214 C   0  0  0  0  0  0  0  0  0  0  0  0
    2.8923    1.8248   -1.8846 H   0  0  0  0  0  0  0  0  0  0  0  0
    0.5900   -0.6676    2.8367 H   0  0  0  0  0  0  0  0  0  0  0  0
   -0.7850   -1.2373    1.0221 H   0  0  0  0  0  0  0  0  0  0  0  0
  5  4  1  0
  6  4  1  0
 12 11  2  0
 14  4  1  0
 18  3  1  0
 22  1  1  0
 22 13  1  0
 22 15  1  0
 22 20  1  0
 23 15  1  0
 24 14  1  0
 25  8  1  0
 26  3  2  0
 26 12  1  0
 26 16  1  0
 27 10  1  0
 27 21  1  0
 28 23  1  0
 29 10  2  0
 29 11  1  0
 29 17  1  0
 32 28  2  0
 33  8  1  0
 34  3  1  0
 34  5  2  0
 35  5  1  0
 35 12  1  0
 35 27  2  0
 36 10  1  0
 37  2  1  0
 37  9  1  0
 37 15  1  0
 37 31  1  0
 38 11  1  0
 39  7  1  0
 39 15  1  0
 39 19  1  0
 39 30  1  0
 40  8  1  0
 41  4  1  0
 41  8  1  0
 41 21  1  0
 41 28  1  0
 42 34  1  0
 43 21  1  0
 44 23  1  0
M  END
$$$$
