
     RDKit          3D

 41 43  0  0  0  0  0  0  0  0999 V2000
   -0.7810    1.6819    2.9176 C   0  0  0  0  0  0  0  0  0  0  0  0
   -2.9800    3.2489    3.0279 H   0  0  0  0  0  0  0  0  0  0  0  0
   -0.3633   -2.1120    1.5231 C   0  0  0  0  0  0  0  0  0  0  0  0
   -1.6147    2.1226    3.8772 O   0  0  0  0  0  0  0  0  0  0  0  0
   -0.8839    1.0443   -3.5546 H   0  0  0  0  0  0  0  0  0  0  0  0
   -2.1656    1.7456    1.3034 H   0  0  0  0  0  0  0  0  0  0  0  0
   -1.1552    1.5278    1.5819 C   0  0  0  0  0  0  0  0  0  0  0  0
   -0.7461   -1.8057    2.5091 H   0  0  0  0  0  0  0  0  0  0  0  0
    3.0508    0.2385   -2.7214 H   0  0  0  0  0  0  0  0  0  0  0  0
    1.7609    0.2135   -0.0616 C   0  0  0  0  0  0  0  0  0  0  0  0
   -0.2793   -3.2221   -3.2317 O   0  0  0  0  0  0  0  0  0  0  0  0
    1.0561   -3.1367   -0.3666 S   0  0  0  0  0  0  0  0  0  0  0  0
   -0.0718   -0.7440   -3.1374 N   0  0  0  0  0  0  0  0  0  0  0  0
   -1.0337   -1.8092    0.3261 C   0  0  0  0  0  0  0  0  0  0  0  0
    1.4539   -3.2031    2.0863 H   0  0  0  0  0  0  0  0  0  0  0  0
    0.1576    1.9752   -1.2522 H   0  0  0  0  0  0  0  0  0  0  0  0
   -1.3255    0.3576   -2.0107 H   0  0  0  0  0  0  0  0  0  0  0  0
   -0.3189    1.1044    0.6172 N   0  0  0  0  0  0  0  0  0  0  0  0
   -3.3105    2.7312    4.6373 H   0  0  0  0  0  0  0  0  0  0  0  0
    0.7607   -2.8140    1.3074 C   0  0  0  0  0  0  0  0  0  0  0  0
    0.5080    1.3513    3.2197 C   0  0  0  0  0  0  0  0  0  0  0  0
    1.5378    0.4032   -1.3784 N   0  0  0  0  0  0  0  0  0  0  0  0
   -0.8106   -2.1270   -2.4786 S   0  0  0  0  0  0  0  0  0  0  0  0
    1.3431    0.9131    2.2682 C   0  0  0  0  0  0  0  0  0  0  0  0
    1.5039   -1.8460   -3.7635 H   0  0  0  0  0  0  0  0  0  0  0  0
    0.8105    1.4653    4.2745 H   0  0  0  0  0  0  0  0  0  0  0  0
   -2.8817    2.4149    3.6708 C   0  0  0  0  0  0  0  0  0  0  0  0
    1.1140    1.9184   -2.7128 H   0  0  0  0  0  0  0  0  0  0  0  0
    2.6669   -0.5111    0.3062 O   0  0  0  0  0  0  0  0  0  0  0  0
   -0.3590   -2.2802   -0.7901 C   0  0  0  0  0  0  0  0  0  0  0  0
   -0.5284    0.5210   -2.6794 C   0  0  0  0  0  0  0  0  0  0  0  0
    0.8620    0.7752    0.9329 C   0  0  0  0  0  0  0  0  0  0  0  0
    1.4901   -0.1649   -4.3324 H   0  0  0  0  0  0  0  0  0  0  0  0
   -2.2476   -1.8413   -2.4718 O   0  0  0  0  0  0  0  0  0  0  0  0
    1.3195   -0.8164   -3.4687 C   0  0  0  0  0  0  0  0  0  0  0  0
    2.2355   -0.3784   -2.3205 C   0  0  0  0  0  0  0  0  0  0  0  0
    2.3591    0.6272    2.4905 H   0  0  0  0  0  0  0  0  0  0  0  0
    0.5898    1.3373   -1.9767 C   0  0  0  0  0  0  0  0  0  0  0  0
   -1.9626   -1.2794    0.2407 H   0  0  0  0  0  0  0  0  0  0  0  0
   -3.4349    1.6031    3.3557 H   0  0  0  0  0  0  0  0  0  0  0  0
    2.6743   -1.2299   -1.7646 H   0  0  0  0  0  0  0  0  0  0  0  0
  4  1  1  0
  7  1  2  0
  7  6  1  0
  8  3  1  0
 14  3  1  0
 18  7  1  0
 20  3  2  0
 20 12  1  0
 20 15  1  0
 21  1  1  0
 22 10  1  0
 23 11  2  0
 23 13  1  0
 24 21  2  0
 26 21  1  0
 27  2  1  0
 27  4  1  0
 27 19  1  0
 29 10  2  0
 30 12  1  0
 30 14  2  0
 30 23  1  0
 31  5  1  0
 31 13  1  0
 31 17  1  0
 32 10  1  0
 32 18  2  0
 32 24  1  0
 34 23  2  0
 35 13  1  0
 35 25  1  0
 35 33  1  0
 36  9  1  0
 36 22  1  0
 36 35  1  0
 37 24  1  0
 38 16  1  0
 38 22  1  0
 38 28  1  0
 38 31  1  0
 39 14  1  0
 40 27  1  0
 41 36  1  0
M  END
$$$$
