
     RDKit          3D

 41 43  0  0  0  0  0  0  0  0999 V2000
    1.6201    0.2111   -1.4191 C   0  0  0  0  0  0  0  0  0  0  0  0
    3.1090   -1.2060   -2.4191 O   0  0  0  0  0  0  0  0  0  0  0  0
    1.4317   -2.5287    1.2523 C   0  0  0  0  0  0  0  0  0  0  0  0
    4.3491   -2.2072   -3.4870 H   0  0  0  0  0  0  0  0  0  0  0  0
   -0.3606    3.2530   -0.7880 C   0  0  0  0  0  0  0  0  0  0  0  0
   -2.3417    1.9464    1.4003 C   0  0  0  0  0  0  0  0  0  0  0  0
    2.2418   -0.3674   -2.3114 N   0  0  0  0  0  0  0  0  0  0  0  0
    1.0460   -2.2353    3.3340 H   0  0  0  0  0  0  0  0  0  0  0  0
   -1.9522   -2.0188    0.5532 O   0  0  0  0  0  0  0  0  0  0  0  0
   -3.2104   -3.0823    1.6956 H   0  0  0  0  0  0  0  0  0  0  0  0
   -2.7201    1.1995    3.3703 H   0  0  0  0  0  0  0  0  0  0  0  0
    1.5018   -3.5878    1.3598 H   0  0  0  0  0  0  0  0  0  0  0  0
    1.5766   -1.9552    0.0038 C   0  0  0  0  0  0  0  0  0  0  0  0
   -1.8954    2.2998   -1.8837 H   0  0  0  0  0  0  0  0  0  0  0  0
    2.8866   -1.6965   -4.3271 H   0  0  0  0  0  0  0  0  0  0  0  0
   -1.8745    0.3254   -0.2547 C   0  0  0  0  0  0  0  0  0  0  0  0
   -2.0158    1.6394    0.0968 C   0  0  0  0  0  0  0  0  0  0  0  0
   -2.3392   -0.3329    1.9707 C   0  0  0  0  0  0  0  0  0  0  0  0
   -2.4594    2.9724    1.6815 H   0  0  0  0  0  0  0  0  0  0  0  0
    0.8914    1.7770   -2.9316 O   0  0  0  0  0  0  0  0  0  0  0  0
    3.6607   -1.4536   -3.6472 C   0  0  0  0  0  0  0  0  0  0  0  0
    1.1604    0.1765    1.0115 N   0  0  0  0  0  0  0  0  0  0  0  0
    1.7307   -2.4827   -0.9081 H   0  0  0  0  0  0  0  0  0  0  0  0
   -1.7833    2.7314   -0.9031 C   0  0  0  0  0  0  0  0  0  0  0  0
    1.4937   -0.5035   -0.0919 C   0  0  0  0  0  0  0  0  0  0  0  0
    0.5724    2.1501   -0.6509 N   0  0  0  0  0  0  0  0  0  0  0  0
   -2.2613   -2.4824    1.7942 C   0  0  0  0  0  0  0  0  0  0  0  0
   -2.4811    3.5421   -0.7768 H   0  0  0  0  0  0  0  0  0  0  0  0
   -1.4567   -3.1731    2.1184 H   0  0  0  0  0  0  0  0  0  0  0  0
   -0.2341    3.8232    0.0896 H   0  0  0  0  0  0  0  0  0  0  0  0
   -2.5077    0.9787    2.3411 C   0  0  0  0  0  0  0  0  0  0  0  0
   -1.6550    0.0430   -1.2799 H   0  0  0  0  0  0  0  0  0  0  0  0
   -0.0754    3.7902   -1.6408 H   0  0  0  0  0  0  0  0  0  0  0  0
    0.9923    1.4571   -1.7025 C   0  0  0  0  0  0  0  0  0  0  0  0
   -2.4408   -1.4778    2.7911 O   0  0  0  0  0  0  0  0  0  0  0  0
    4.1681   -0.5718   -3.9246 H   0  0  0  0  0  0  0  0  0  0  0  0
    1.0141   -0.4232    2.1989 C   0  0  0  0  0  0  0  0  0  0  0  0
    0.8006    0.2027    3.0365 H   0  0  0  0  0  0  0  0  0  0  0  0
    0.6834    1.6887    0.2382 H   0  0  0  0  0  0  0  0  0  0  0  0
   -2.0307   -0.6585    0.6675 C   0  0  0  0  0  0  0  0  0  0  0  0
    1.1650   -1.7625    2.3424 C   0  0  0  0  0  0  0  0  0  0  0  0
  7  1  2  3
  7  2  1  0
 12  3  1  0
 13  3  2  0
 17  6  2  0
 17 16  1  0
 19  6  1  0
 21  2  1  0
 21  4  1  0
 21 15  1  0
 23 13  1  0
 24  5  1  0
 24 14  1  0
 24 17  1  0
 25  1  1  0
 25 13  1  0
 25 22  2  0
 26  5  1  0
 27  9  1  0
 27 10  1  0
 28 24  1  0
 29 27  1  0
 30  5  1  0
 31  6  1  0
 31 11  1  0
 31 18  2  0
 32 16  1  0
 33  5  1  0
 34  1  1  0
 34 20  2  0
 34 26  1  0
 35 18  1  0
 35 27  1  0
 36 21  1  0
 37 22  1  0
 38 37  1  0
 39 26  1  0
 40  9  1  0
 40 16  2  0
 40 18  1  0
 41  3  1  0
 41  8  1  0
 41 37  2  0
M  END
$$$$
