
     RDKit          3D

 42 45  0  0  0  0  0  0  0  0999 V2000
    1.0998    1.1860    1.3886 C   0  0  0  0  0  0  0  0  0  0  0  0
    1.4516   -2.0029    0.6407 C   0  0  0  0  0  0  0  0  0  0  0  0
    3.0975    1.2266    2.7260 C   0  0  0  0  0  0  0  0  0  0  0  0
   -1.1217    1.9231    0.6125 N   0  0  0  0  0  0  0  0  0  0  0  0
    3.1594    2.2517    0.6536 C   0  0  0  0  0  0  0  0  0  0  0  0
   -0.3368   -0.3425    0.1847 N   0  0  0  0  0  0  0  0  0  0  0  0
   -0.8561    2.2813   -3.1701 H   0  0  0  0  0  0  0  0  0  0  0  0
    0.1634   -0.9759   -1.9413 N   0  0  0  0  0  0  0  0  0  0  0  0
   -0.5809    0.5989   -3.5701 H   0  0  0  0  0  0  0  0  0  0  0  0
   -2.5716    0.3396   -1.1885 O   0  0  0  0  0  0  0  0  0  0  0  0
    3.7262    2.7949   -0.0182 H   0  0  0  0  0  0  0  0  0  0  0  0
   -1.2599    0.9278   -1.4811 C   0  0  0  0  0  0  0  0  0  0  0  0
   -0.9981   -3.9784    2.8237 H   0  0  0  0  0  0  0  0  0  0  0  0
    1.3597    2.1739   -0.5107 H   0  0  0  0  0  0  0  0  0  0  0  0
    3.6308    0.9630    3.6227 H   0  0  0  0  0  0  0  0  0  0  0  0
    0.1443   -1.5570    0.8213 C   0  0  0  0  0  0  0  0  0  0  0  0
   -3.2691    0.0256   -2.4812 C   0  0  0  0  0  0  0  0  0  0  0  0
   -2.7131    1.1502   -3.4019 C   0  0  0  0  0  0  0  0  0  0  0  0
   -0.7969    0.4693    2.0420 H   0  0  0  0  0  0  0  0  0  0  0  0
    0.7578   -1.6752   -2.1374 H   0  0  0  0  0  0  0  0  0  0  0  0
   -1.6875    3.2128   -1.0276 O   0  0  0  0  0  0  0  0  0  0  0  0
    2.8830   -3.5337    1.0760 H   0  0  0  0  0  0  0  0  0  0  0  0
   -0.2821   -3.4615    2.2340 C   0  0  0  0  0  0  0  0  0  0  0  0
    1.8778   -3.2048    1.2505 C   0  0  0  0  0  0  0  0  0  0  0  0
   -0.6973   -2.2850    1.6180 C   0  0  0  0  0  0  0  0  0  0  0  0
   -2.8404   -0.9509   -2.7416 H   0  0  0  0  0  0  0  0  0  0  0  0
   -1.6859   -1.9373    1.7691 H   0  0  0  0  0  0  0  0  0  0  0  0
   -0.3956   -0.1722   -1.1210 C   0  0  0  0  0  0  0  0  0  0  0  0
   -3.2048    2.0137   -3.1935 H   0  0  0  0  0  0  0  0  0  0  0  0
   -4.2396    0.0394   -2.3589 H   0  0  0  0  0  0  0  0  0  0  0  0
   -1.2258    1.2799   -3.0371 C   0  0  0  0  0  0  0  0  0  0  0  0
    0.9836   -3.9356    2.0398 C   0  0  0  0  0  0  0  0  0  0  0  0
    1.2807    0.2686    3.3070 H   0  0  0  0  0  0  0  0  0  0  0  0
    1.3000   -4.8631    2.4851 H   0  0  0  0  0  0  0  0  0  0  0  0
    2.1347   -1.4018    0.0855 H   0  0  0  0  0  0  0  0  0  0  0  0
    1.7948    0.8438    2.5483 C   0  0  0  0  0  0  0  0  0  0  0  0
   -1.3511    2.1878   -0.6854 C   0  0  0  0  0  0  0  0  0  0  0  0
   -0.3695    0.8093    1.1249 C   0  0  0  0  0  0  0  0  0  0  0  0
    3.7972    1.9224    1.8116 N   0  0  0  0  0  0  0  0  0  0  0  0
   -2.8288    0.8303   -4.4551 H   0  0  0  0  0  0  0  0  0  0  0  0
    1.8490    1.9061    0.3961 C   0  0  0  0  0  0  0  0  0  0  0  0
   -1.1790    2.6517    1.2590 H   0  0  0  0  0  0  0  0  0  0  0  0
 11  5  1  0
 12 10  1  0
 15  3  1  0
 16  2  2  0
 16  6  1  0
 17 10  1  0
 18 17  1  0
 20  8  1  0
 23 13  1  0
 24  2  1  0
 24 22  1  0
 25 16  1  0
 25 23  2  0
 26 17  1  0
 27 25  1  0
 28  6  1  0
 28  8  2  3
 28 12  1  0
 29 18  1  0
 30 17  1  0
 31  7  1  0
 31  9  1  0
 31 12  1  0
 31 18  1  0
 32 23  1  0
 32 24  2  0
 34 32  1  0
 35  2  1  0
 36  1  1  0
 36  3  2  0
 36 33  1  0
 37  4  1  0
 37 12  1  0
 37 21  2  0
 38  1  1  0
 38  4  1  0
 38  6  1  0
 38 19  1  0
 39  3  1  0
 39  5  2  0
 40 18  1  0
 41  1  2  0
 41  5  1  0
 41 14  1  0
 42  4  1  0
M  END
$$$$
