
     RDKit          3D

 44 45  0  0  0  0  0  0  0  0999 V2000
    0.4347    1.9452    4.7417 H   0  0  0  0  0  0  0  0  0  0  0  0
    1.1901   -2.8641    1.9000 H   0  0  0  0  0  0  0  0  0  0  0  0
    2.2507   -3.1565    0.5444 H   0  0  0  0  0  0  0  0  0  0  0  0
    1.7213   -2.4049    1.1142 C   0  0  0  0  0  0  0  0  0  0  0  0
    2.3083   -0.8065   -1.5282 C   0  0  0  0  0  0  0  0  0  0  0  0
    0.9462    0.2827    4.7184 H   0  0  0  0  0  0  0  0  0  0  0  0
    3.6211    0.2675   -3.4348 C   0  0  0  0  0  0  0  0  0  0  0  0
    0.5088    1.0150    4.1233 C   0  0  0  0  0  0  0  0  0  0  0  0
   -1.7546    2.5643    3.4346 H   0  0  0  0  0  0  0  0  0  0  0  0
   -2.8600    0.3377    0.0165 C   0  0  0  0  0  0  0  0  0  0  0  0
   -2.9712   -1.7583   -0.3502 H   0  0  0  0  0  0  0  0  0  0  0  0
   -0.0460   -0.6273   -1.4835 C   0  0  0  0  0  0  0  0  0  0  0  0
   -2.5033   -0.7385    1.6925 H   0  0  0  0  0  0  0  0  0  0  0  0
   -1.1156   -2.1543    1.3720 O   0  0  0  0  0  0  0  0  0  0  0  0
    1.0732    0.3706   -3.2098 C   0  0  0  0  0  0  0  0  0  0  0  0
   -0.9219    0.5852    3.6781 C   0  0  0  0  0  0  0  0  0  0  0  0
   -3.0154    1.2258    2.2947 C   0  0  0  0  0  0  0  0  0  0  0  0
   -1.0501    0.4026   -2.9996 H   0  0  0  0  0  0  0  0  0  0  0  0
   -3.6220    0.9281    3.1109 H   0  0  0  0  0  0  0  0  0  0  0  0
    1.1798   -1.0618   -0.9577 C   0  0  0  0  0  0  0  0  0  0  0  0
   -1.0357   -1.0869   -0.6082 N   0  0  0  0  0  0  0  0  0  0  0  0
   -2.4321   -0.8751   -0.7400 C   0  0  0  0  0  0  0  0  0  0  0  0
    3.6361   -0.1240   -4.4692 H   0  0  0  0  0  0  0  0  0  0  0  0
    2.4059   -1.7111    1.4658 H   0  0  0  0  0  0  0  0  0  0  0  0
    1.5757    2.1249   -4.3929 H   0  0  0  0  0  0  0  0  0  0  0  0
    0.8236   -1.7300    0.2071 N   0  0  0  0  0  0  0  0  0  0  0  0
   -0.9243    1.8788    2.0246 H   0  0  0  0  0  0  0  0  0  0  0  0
   -3.4265    2.0606    1.7596 H   0  0  0  0  0  0  0  0  0  0  0  0
   -0.8370   -0.3629    3.1171 H   0  0  0  0  0  0  0  0  0  0  0  0
   -0.5004   -1.7531    0.4309 C   0  0  0  0  0  0  0  0  0  0  0  0
   -0.1193    0.0797   -2.6114 C   0  0  0  0  0  0  0  0  0  0  0  0
   -2.8763    0.1531    1.3408 N   0  0  0  0  0  0  0  0  0  0  0  0
    1.1105    1.1845    3.2673 H   0  0  0  0  0  0  0  0  0  0  0  0
   -1.5983    1.6362    2.8475 C   0  0  0  0  0  0  0  0  0  0  0  0
   -1.5372    0.3954    4.5824 H   0  0  0  0  0  0  0  0  0  0  0  0
   -2.7176   -0.7927   -1.7548 H   0  0  0  0  0  0  0  0  0  0  0  0
    4.4512   -0.1976   -2.8735 H   0  0  0  0  0  0  0  0  0  0  0  0
   -0.0338    1.4120   -4.7290 H   0  0  0  0  0  0  0  0  0  0  0  0
    3.7888    1.3506   -3.4865 H   0  0  0  0  0  0  0  0  0  0  0  0
   -3.1772    1.3798   -0.5464 O   0  0  0  0  0  0  0  0  0  0  0  0
    1.0388    1.1843   -4.4953 C   0  0  0  0  0  0  0  0  0  0  0  0
    2.2957   -0.0542   -2.6956 C   0  0  0  0  0  0  0  0  0  0  0  0
    3.2465   -1.1672   -1.0941 H   0  0  0  0  0  0  0  0  0  0  0  0
    1.4690    0.6625   -5.3238 H   0  0  0  0  0  0  0  0  0  0  0  0
  4  2  1  0
  4  3  1  0
  8  1  1  0
  8  6  1  0
 16  8  1  0
 19 17  1  0
 20  5  2  0
 20 12  1  0
 21 12  1  0
 22 10  1  0
 22 11  1  0
 22 21  1  0
 23  7  1  0
 24  4  1  0
 26  4  1  0
 26 20  1  0
 28 17  1  0
 29 16  1  0
 30 14  2  0
 30 21  1  0
 30 26  1  0
 31 12  2  0
 31 15  1  0
 31 18  1  0
 32 10  1  0
 32 13  1  0
 32 17  1  0
 33  8  1  0
 34  9  1  0
 34 16  1  0
 34 17  1  0
 34 27  1  0
 35 16  1  0
 36 22  1  0
 37  7  1  0
 39  7  1  0
 40 10  2  0
 41 15  1  0
 41 25  1  0
 41 38  1  0
 42  5  1  0
 42  7  1  0
 42 15  2  0
 43  5  1  0
 44 41  1  0
M  END
$$$$
