
     RDKit          3D

 42 43  0  0  0  0  0  0  0  0999 V2000
   -0.6439   -1.3187    0.0575 C   0  0  0  0  0  0  0  0  0  0  0  0
    2.7329    1.1535    1.0273 C   0  0  0  0  0  0  0  0  0  0  0  0
    4.0670   -1.2230    1.3866 H   0  0  0  0  0  0  0  0  0  0  0  0
    0.1951    0.3085   -1.3790 C   0  0  0  0  0  0  0  0  0  0  0  0
   -1.2096   -3.1103    1.7307 C   0  0  0  0  0  0  0  0  0  0  0  0
    2.5045    2.0316    0.3397 H   0  0  0  0  0  0  0  0  0  0  0  0
   -3.0860   -0.6107    0.9387 C   0  0  0  0  0  0  0  0  0  0  0  0
    0.3972   -2.9133    0.4967 H   0  0  0  0  0  0  0  0  0  0  0  0
    0.6289    0.8990    1.6462 H   0  0  0  0  0  0  0  0  0  0  0  0
    2.2837   -1.2174   -1.9910 H   0  0  0  0  0  0  0  0  0  0  0  0
   -4.1566    2.0412   -2.2340 C   0  0  0  0  0  0  0  0  0  0  0  0
    3.8569    1.1980   -1.1143 H   0  0  0  0  0  0  0  0  0  0  0  0
    1.7990    0.4245    2.8406 H   0  0  0  0  0  0  0  0  0  0  0  0
    1.4120    0.8759   -2.3441 S   0  0  0  0  0  0  0  0  0  0  0  0
    2.7056   -0.2687   -2.1682 C   0  0  0  0  0  0  0  0  0  0  0  0
   -0.6214   -3.8982    2.1522 H   0  0  0  0  0  0  0  0  0  0  0  0
   -4.3058    2.7578   -0.1957 H   0  0  0  0  0  0  0  0  0  0  0  0
   -4.5711    2.9391   -2.7118 H   0  0  0  0  0  0  0  0  0  0  0  0
   -1.4798   -2.4031    2.5517 H   0  0  0  0  0  0  0  0  0  0  0  0
   -4.9867    1.3340   -2.1248 H   0  0  0  0  0  0  0  0  0  0  0  0
    3.0512   -1.1893    0.9532 C   0  0  0  0  0  0  0  0  0  0  0  0
   -3.5420    2.3467   -0.8583 C   0  0  0  0  0  0  0  0  0  0  0  0
   -3.0470    1.1337   -0.2823 N   0  0  0  0  0  0  0  0  0  0  0  0
   -1.8191   -0.6380    0.2625 C   0  0  0  0  0  0  0  0  0  0  0  0
   -1.8351    0.6355   -0.5579 C   0  0  0  0  0  0  0  0  0  0  0  0
   -3.3926    1.5857   -2.9259 H   0  0  0  0  0  0  0  0  0  0  0  0
    2.8130    0.0047    0.2419 N   0  0  0  0  0  0  0  0  0  0  0  0
   -3.7215    0.4653    0.5704 N   0  0  0  0  0  0  0  0  0  0  0  0
    1.4953    2.0951    2.5185 H   0  0  0  0  0  0  0  0  0  0  0  0
    3.5633    0.1507   -0.9626 C   0  0  0  0  0  0  0  0  0  0  0  0
   -0.4385   -2.4926    0.7230 N   0  0  0  0  0  0  0  0  0  0  0  0
   -2.7239    3.0150   -1.0089 H   0  0  0  0  0  0  0  0  0  0  0  0
    3.7149    1.3548    1.5340 H   0  0  0  0  0  0  0  0  0  0  0  0
    3.2902   -0.2534   -3.0494 H   0  0  0  0  0  0  0  0  0  0  0  0
    2.9772   -2.0242    0.2839 H   0  0  0  0  0  0  0  0  0  0  0  0
    0.3032   -0.8542   -0.7644 N   0  0  0  0  0  0  0  0  0  0  0  0
   -0.8838    1.0838   -1.3037 N   0  0  0  0  0  0  0  0  0  0  0  0
    4.4188   -0.5099   -1.0128 H   0  0  0  0  0  0  0  0  0  0  0  0
    2.3361   -1.2944    1.7275 H   0  0  0  0  0  0  0  0  0  0  0  0
   -2.1734   -3.4698    1.3263 H   0  0  0  0  0  0  0  0  0  0  0  0
    1.5705    1.1802    2.0735 C   0  0  0  0  0  0  0  0  0  0  0  0
   -3.4787   -1.3251    1.6062 H   0  0  0  0  0  0  0  0  0  0  0  0
  6  2  1  0
 14  4  1  0
 15 10  1  0
 15 14  1  0
 16  5  1  0
 18 11  1  0
 19  5  1  0
 20 11  1  0
 21  3  1  0
 22 11  1  0
 22 17  1  0
 23 22  1  0
 24  1  2  0
 24  7  1  0
 25 23  1  0
 25 24  1  0
 26 11  1  0
 27  2  1  0
 27 21  1  0
 28  7  2  0
 28 23  1  0
 30 12  1  0
 30 15  1  0
 30 27  1  0
 31  1  1  0
 31  5  1  0
 31  8  1  0
 32 22  1  0
 33  2  1  0
 34 15  1  0
 35 21  1  0
 36  1  1  0
 36  4  2  0
 37  4  1  0
 37 25  2  0
 38 30  1  0
 39 21  1  0
 40  5  1  0
 41  2  1  0
 41  9  1  0
 41 13  1  0
 41 29  1  0
 42  7  1  0
M  END
$$$$
