
     RDKit          3D

 42 44  0  0  0  0  0  0  0  0999 V2000
   -2.7462   -1.0286    3.3750 H   0  0  0  0  0  0  0  0  0  0  0  0
    0.6202    2.9890    0.5605 H   0  0  0  0  0  0  0  0  0  0  0  0
    0.6912    1.1075   -3.3310 C   0  0  0  0  0  0  0  0  0  0  0  0
   -2.0220    0.3574    4.2273 H   0  0  0  0  0  0  0  0  0  0  0  0
   -0.9116   -1.7702   -2.4802 H   0  0  0  0  0  0  0  0  0  0  0  0
    1.0763   -3.4828    1.6933 H   0  0  0  0  0  0  0  0  0  0  0  0
    2.4797    0.1725   -0.6570 H   0  0  0  0  0  0  0  0  0  0  0  0
   -1.8379   -0.6763    3.9076 C   0  0  0  0  0  0  0  0  0  0  0  0
   -1.0072    1.9019   -0.3212 C   0  0  0  0  0  0  0  0  0  0  0  0
    1.6149    1.1149   -2.3420 C   0  0  0  0  0  0  0  0  0  0  0  0
   -1.7340   -0.0403    0.9149 C   0  0  0  0  0  0  0  0  0  0  0  0
    0.8131    1.4890    2.4562 H   0  0  0  0  0  0  0  0  0  0  0  0
   -0.3705   -2.2211    2.6563 C   0  0  0  0  0  0  0  0  0  0  0  0
   -1.1424   -2.4968    1.9324 H   0  0  0  0  0  0  0  0  0  0  0  0
    1.8540    2.9003   -3.5992 C   0  0  0  0  0  0  0  0  0  0  0  0
    1.3555   -0.6959    0.9258 H   0  0  0  0  0  0  0  0  0  0  0  0
   -1.7317   -1.2451    4.8195 H   0  0  0  0  0  0  0  0  0  0  0  0
    1.5450    3.8828   -3.2563 H   0  0  0  0  0  0  0  0  0  0  0  0
   -0.9496    0.8882   -4.9652 H   0  0  0  0  0  0  0  0  0  0  0  0
    2.6660    3.0094   -4.3571 H   0  0  0  0  0  0  0  0  0  0  0  0
    1.6781    0.1241   -1.3857 C   0  0  0  0  0  0  0  0  0  0  0  0
   -2.3784   -0.8917    1.0242 H   0  0  0  0  0  0  0  0  0  0  0  0
   -1.8658    0.8146   -0.1690 C   0  0  0  0  0  0  0  0  0  0  0  0
   -1.1139    2.5691   -1.1555 H   0  0  0  0  0  0  0  0  0  0  0  0
    1.0050   -2.4525    1.9885 C   0  0  0  0  0  0  0  0  0  0  0  0
   -0.2259    0.0638   -3.4073 C   0  0  0  0  0  0  0  0  0  0  0  0
    0.2819   -0.3999    3.6274 H   0  0  0  0  0  0  0  0  0  0  0  0
    0.7793    2.1988   -4.1931 O   0  0  0  0  0  0  0  0  0  0  0  0
    1.7892   -2.2385    2.6617 H   0  0  0  0  0  0  0  0  0  0  0  0
    0.7705   -0.9273   -1.4351 C   0  0  0  0  0  0  0  0  0  0  0  0
   -0.5926   -0.7791    3.0356 C   0  0  0  0  0  0  0  0  0  0  0  0
   -1.1656    0.0519   -4.4238 O   0  0  0  0  0  0  0  0  0  0  0  0
    0.3440   -3.1856   -0.6522 O   0  0  0  0  0  0  0  0  0  0  0  0
   -0.4097   -2.8569    3.5426 H   0  0  0  0  0  0  0  0  0  0  0  0
   -0.7439    0.1718    1.8654 C   0  0  0  0  0  0  0  0  0  0  0  0
   -0.0425    2.1246    0.6409 C   0  0  0  0  0  0  0  0  0  0  0  0
    0.7339   -2.0473   -0.4089 C   0  0  0  0  0  0  0  0  0  0  0  0
    1.2134   -1.6782    0.7888 N   0  0  0  0  0  0  0  0  0  0  0  0
    0.0636    1.2555    1.7218 C   0  0  0  0  0  0  0  0  0  0  0  0
    2.3870    2.2337   -2.4961 O   0  0  0  0  0  0  0  0  0  0  0  0
   -0.1631   -0.9383   -2.4437 C   0  0  0  0  0  0  0  0  0  0  0  0
   -2.6072    0.6316   -0.8863 H   0  0  0  0  0  0  0  0  0  0  0  0
  8  1  1  0
  8  4  1  0
 10  3  2  0
 14 13  1  0
 17  8  1  0
 18 15  1  0
 20 15  1  0
 21  7  1  0
 21 10  1  0
 22 11  1  0
 23  9  2  0
 23 11  1  0
 24  9  1  0
 25  6  1  0
 25 13  1  0
 26  3  1  0
 28  3  1  0
 28 15  1  0
 29 25  1  0
 30 21  2  0
 31  8  1  0
 31 13  1  0
 31 27  1  0
 32 19  1  0
 32 26  1  0
 34 13  1  0
 35 11  2  0
 35 31  1  0
 36  2  1  0
 36  9  1  0
 37 30  1  0
 37 33  2  0
 38 16  1  0
 38 25  1  0
 38 37  1  0
 39 12  1  0
 39 35  1  0
 39 36  2  0
 40 10  1  0
 40 15  1  0
 41  5  1  0
 41 26  2  0
 41 30  1  0
 42 23  1  0
M  END
$$$$
