
     RDKit          3D

 41 41  0  0  0  0  0  0  0  0999 V2000
    0.3011    3.2599   -1.8886 C   0  0  0  0  0  0  0  0  0  0  0  0
   -0.2462   -2.1188    0.3303 N   0  0  0  0  0  0  0  0  0  0  0  0
    0.2320    3.6529   -2.9042 H   0  0  0  0  0  0  0  0  0  0  0  0
   -0.3397   -2.6543    2.7385 C   0  0  0  0  0  0  0  0  0  0  0  0
   -1.6549   -4.0043    0.9945 C   0  0  0  0  0  0  0  0  0  0  0  0
   -2.9000   -4.9638   -0.4291 H   0  0  0  0  0  0  0  0  0  0  0  0
    1.7024    2.7746   -1.7244 C   0  0  0  0  0  0  0  0  0  0  0  0
   -1.0767   -2.9598    3.4666 H   0  0  0  0  0  0  0  0  0  0  0  0
    0.9119   -0.5445   -0.8879 O   0  0  0  0  0  0  0  0  0  0  0  0
   -1.9579   -1.9292    1.4263 H   0  0  0  0  0  0  0  0  0  0  0  0
   -1.0145   -0.0084    1.5119 H   0  0  0  0  0  0  0  0  0  0  0  0
   -0.2699    1.5332    0.6443 N   0  0  0  0  0  0  0  0  0  0  0  0
    0.2550   -2.7523   -0.1577 H   0  0  0  0  0  0  0  0  0  0  0  0
   -1.4809    3.1325    0.1364 H   0  0  0  0  0  0  0  0  0  0  0  0
    1.0085    3.1564    0.7283 H   0  0  0  0  0  0  0  0  0  0  0  0
   -3.4013   -3.3379   -0.0535 H   0  0  0  0  0  0  0  0  0  0  0  0
    2.3662    3.6120   -1.5342 H   0  0  0  0  0  0  0  0  0  0  0  0
   -0.4176    1.2719   -2.0457 H   0  0  0  0  0  0  0  0  0  0  0  0
   -0.8347   -4.6772    0.8167 H   0  0  0  0  0  0  0  0  0  0  0  0
   -1.2293    2.0915   -0.2267 C   0  0  0  0  0  0  0  0  0  0  0  0
   -0.4654    0.1347    0.7669 N   0  0  0  0  0  0  0  0  0  0  0  0
   -2.2559   -4.3970    1.8151 H   0  0  0  0  0  0  0  0  0  0  0  0
    1.6064    1.5822    1.3550 H   0  0  0  0  0  0  0  0  0  0  0  0
    1.0887    2.0737    0.5598 C   0  0  0  0  0  0  0  0  0  0  0  0
   -1.9826   -3.5325   -1.0124 H   0  0  0  0  0  0  0  0  0  0  0  0
    0.0550   -0.8376    0.0369 C   0  0  0  0  0  0  0  0  0  0  0  0
   -1.1191   -2.5442    1.3522 C   0  0  0  0  0  0  0  0  0  0  0  0
   -2.5551   -3.9299   -0.2471 C   0  0  0  0  0  0  0  0  0  0  0  0
    3.2858    1.6694   -0.4248 C   0  0  0  0  0  0  0  0  0  0  0  0
    0.4175   -3.3632    2.7201 H   0  0  0  0  0  0  0  0  0  0  0  0
    0.0687    4.1392   -1.2511 H   0  0  0  0  0  0  0  0  0  0  0  0
    1.4505    0.8644   -0.8857 H   0  0  0  0  0  0  0  0  0  0  0  0
    3.7418    2.6002   -0.0670 H   0  0  0  0  0  0  0  0  0  0  0  0
    1.9389    1.8796   -0.6521 N   0  0  0  0  0  0  0  0  0  0  0  0
    0.0041   -1.6800    2.9217 H   0  0  0  0  0  0  0  0  0  0  0  0
    3.4437    0.9241    0.2959 H   0  0  0  0  0  0  0  0  0  0  0  0
   -1.6300    2.5098   -2.2753 H   0  0  0  0  0  0  0  0  0  0  0  0
    2.0313    2.2527   -2.6170 H   0  0  0  0  0  0  0  0  0  0  0  0
   -2.1050    1.5094   -0.2504 H   0  0  0  0  0  0  0  0  0  0  0  0
    3.7822    1.4034   -1.3542 H   0  0  0  0  0  0  0  0  0  0  0  0
   -0.7549    2.2072   -1.7276 C   0  0  0  0  0  0  0  0  0  0  0  0
  3  1  1  0
  7  1  1  0
  8  4  1  0
 13  2  1  0
 17  7  1  0
 19  5  1  0
 20 12  1  0
 20 14  1  0
 21 11  1  0
 21 12  1  0
 22  5  1  0
 24 12  1  0
 24 15  1  0
 24 23  1  0
 26  2  1  0
 26  9  2  0
 26 21  1  0
 27  2  1  0
 27  4  1  0
 27  5  1  0
 27 10  1  0
 28  5  1  0
 28  6  1  0
 28 16  1  0
 28 25  1  0
 30  4  1  0
 31  1  1  0
 33 29  1  0
 34  7  1  0
 34 24  1  0
 34 29  1  0
 34 32  1  0
 35  4  1  0
 36 29  1  0
 38  7  1  0
 39 20  1  0
 40 29  1  0
 41  1  1  0
 41 18  1  0
 41 20  1  0
 41 37  1  0
M  CHG  1  34   1
M  END
$$$$
