
     RDKit          3D

 44 45  0  0  0  0  0  0  0  0999 V2000
   -2.8322   -2.9101   -0.8775 H   0  0  0  0  0  0  0  0  0  0  0  0
   -0.5615   -2.7328    0.6295 H   0  0  0  0  0  0  0  0  0  0  0  0
    0.3382    2.2623    3.0794 H   0  0  0  0  0  0  0  0  0  0  0  0
   -2.6306   -3.7308   -2.4189 H   0  0  0  0  0  0  0  0  0  0  0  0
    0.5350   -0.3674    2.3343 O   0  0  0  0  0  0  0  0  0  0  0  0
   -1.1120   -2.0888   -3.2312 H   0  0  0  0  0  0  0  0  0  0  0  0
   -2.5807    1.5991   -1.2562 H   0  0  0  0  0  0  0  0  0  0  0  0
    0.0178   -0.6383    1.5979 H   0  0  0  0  0  0  0  0  0  0  0  0
    2.9489    0.9863    0.3884 H   0  0  0  0  0  0  0  0  0  0  0  0
    2.4498   -0.7182    2.1131 H   0  0  0  0  0  0  0  0  0  0  0  0
    2.1632    1.1808    3.0080 C   0  0  0  0  0  0  0  0  0  0  0  0
    1.4857    2.8883    1.3258 C   0  0  0  0  0  0  0  0  0  0  0  0
    0.5390   -1.3305   -1.8082 H   0  0  0  0  0  0  0  0  0  0  0  0
    2.5409    3.1726    1.0968 H   0  0  0  0  0  0  0  0  0  0  0  0
   -2.3094   -1.0460   -2.2883 H   0  0  0  0  0  0  0  0  0  0  0  0
   -0.1316    1.1955   -2.1033 C   0  0  0  0  0  0  0  0  0  0  0  0
   -0.1469   -2.8445   -0.4068 C   0  0  0  0  0  0  0  0  0  0  0  0
    1.9097    0.6891    0.5768 C   0  0  0  0  0  0  0  0  0  0  0  0
    0.9595    1.0522   -2.0556 H   0  0  0  0  0  0  0  0  0  0  0  0
   -1.2632   -4.6933   -0.3973 H   0  0  0  0  0  0  0  0  0  0  0  0
    0.8833   -3.0853   -0.3283 H   0  0  0  0  0  0  0  0  0  0  0  0
    1.3680    2.4563    2.7887 C   0  0  0  0  0  0  0  0  0  0  0  0
   -0.7548   -0.5770   -0.3659 O   0  0  0  0  0  0  0  0  0  0  0  0
   -0.6747    2.7205    0.0859 H   0  0  0  0  0  0  0  0  0  0  0  0
   -2.8519    0.9387   -0.1319 H   0  0  0  0  0  0  0  0  0  0  0  0
    1.6119   -0.0803   -0.1049 H   0  0  0  0  0  0  0  0  0  0  0  0
   -2.5854    1.3719   -1.5657 H   0  0  0  0  0  0  0  0  0  0  0  0
   -0.2918    2.2523   -2.3561 H   0  0  0  0  0  0  0  0  0  0  0  0
    1.7621    3.2457    3.4612 H   0  0  0  0  0  0  0  0  0  0  0  0
    0.8853    3.7643    1.1606 H   0  0  0  0  0  0  0  0  0  0  0  0
    1.7546    0.1106    2.0471 C   0  0  0  0  0  0  0  0  0  0  0  0
   -0.2731    1.7209    0.2823 C   0  0  0  0  0  0  0  0  0  0  0  0
    1.1448    1.8860    0.3967 N   0  0  0  0  0  0  0  0  0  0  0  0
    3.2330    1.4124    2.8858 H   0  0  0  0  0  0  0  0  0  0  0  0
   -2.2632    1.1666   -0.9855 C   0  0  0  0  0  0  0  0  0  0  0  0
   -0.3397   -4.3477   -1.8725 H   0  0  0  0  0  0  0  0  0  0  0  0
   -0.4839    0.6053   -2.9550 H   0  0  0  0  0  0  0  0  0  0  0  0
   -1.5506   -1.8888   -2.1725 C   0  0  0  0  0  0  0  0  0  0  0  0
   -2.1189   -3.1357   -1.6580 C   0  0  0  0  0  0  0  0  0  0  0  0
   -0.9211   -3.9023   -1.0569 C   0  0  0  0  0  0  0  0  0  0  0  0
    2.0360    0.8047    4.0383 H   0  0  0  0  0  0  0  0  0  0  0  0
   -0.6722    1.4007    1.2285 H   0  0  0  0  0  0  0  0  0  0  0  0
   -0.8384    0.7976   -0.8793 C   0  0  0  0  0  0  0  0  0  0  0  0
   -0.3788   -1.5626   -1.2493 C   0  0  0  0  0  0  0  0  0  0  0  0
  8  5  1  0
 14 12  1  0
 17  2  1  0
 18  9  1  0
 19 16  1  0
 21 17  1  0
 22  3  1  0
 22 11  1  0
 22 12  1  0
 26 18  1  0
 28 16  1  0
 29 22  1  0
 30 12  1  0
 31  5  1  0
 31 10  1  0
 31 11  1  0
 31 18  1  0
 32 24  1  0
 33 12  1  0
 33 18  1  0
 33 32  1  0
 34 11  1  0
 35  7  1  0
 35 25  1  0
 35 27  1  0
 37 16  1  0
 38  6  1  0
 38 15  1  0
 39  1  1  0
 39  4  1  0
 39 38  1  0
 40 17  1  0
 40 20  1  0
 40 36  1  0
 40 39  1  0
 41 11  1  0
 42 32  1  0
 43 16  1  0
 43 23  1  0
 43 32  1  0
 43 35  1  0
 44 13  1  0
 44 17  1  0
 44 23  1  0
 44 38  1  0
M  END
$$$$
